$DATA1 SOURCE='HSPICE' VERSION='F-2011.09 64-BIT'
.TITLE '* include model and subckts'
 index            write1           read1            write0            
                  read0            temper           alter#            
 1                   0.3500           0.3500         1.635e-05        
                   7.321e-05         25.0000        1                 
 2                   0.3499           0.3500         1.768e-05        
                   4.330e-05         25.0000        1                 
 3                   0.3499           0.3500         1.287e-05        
                   2.744e-05         25.0000        1                 
 4                   0.3499           0.3500         1.006e-05        
                   3.314e-05         25.0000        1                 
 5                   0.3500           0.3500         1.562e-05        
                   1.239e-04         25.0000        1                 
 6                   0.3500           0.3500         1.802e-05        
                   9.678e-05         25.0000        1                 
 7                   0.3500           0.3500         1.694e-05        
                   5.869e-05         25.0000        1                 
 8                   0.3499           0.3500         1.461e-05        
                   3.730e-05         25.0000        1                 
 9                   0.3500           0.3500         3.820e-05        
                   7.984e-05         25.0000        1                 
 10                  0.3500           0.3499         1.267e-05        
                   6.094e-05         25.0000        1                 
 11                  0.3500           0.3499         2.116e-05        
                   7.943e-05         25.0000        1                 
 12                  0.3499           0.3500         1.137e-05        
                   5.079e-05         25.0000        1                 
 13                  0.3500           0.3500         1.813e-05        
                   5.679e-05         25.0000        1                 
 14                  0.3500           0.3500         1.653e-05        
                   1.022e-04         25.0000        1                 
 15                  0.3499           0.3500         1.099e-05        
                   5.990e-05         25.0000        1                 
 16                  0.3500           0.3500         2.236e-05        
                   8.848e-05         25.0000        1                 
 17                  0.3500           0.3500         3.089e-05        
                   8.719e-05         25.0000        1                 
 18                  0.3500           0.3499         1.495e-05        
                   6.786e-05         25.0000        1                 
 19                  0.3500           0.3500         1.915e-05        
                   6.023e-05         25.0000        1                 
 20                  0.3499           0.3500         1.201e-05        
                   5.064e-05         25.0000        1                 
 21                  0.3499           0.3500         9.187e-06        
                   3.497e-05         25.0000        1                 
 22                  0.3500           0.3500         2.132e-05        
                   1.047e-04         25.0000        1                 
 23                  0.3500           0.3499         1.778e-05        
                   4.968e-05         25.0000        1                 
 24                  0.3500           0.3500         2.020e-05        
                   8.757e-05         25.0000        1                 
 25                  0.3500           0.3499         2.140e-05        
                   1.316e-04         25.0000        1                 
 26                  0.3500           0.3499         1.890e-05        
                   4.659e-05         25.0000        1                 
 27                  0.3500           0.3499         1.237e-05        
                   8.356e-05         25.0000        1                 
 28                  0.3500           0.3500         2.010e-05        
                   5.416e-05         25.0000        1                 
 29                  0.3500           0.3500         3.206e-05        
                   1.513e-04         25.0000        1                 
 30                  0.3499           0.3500         1.652e-05        
                   4.042e-05         25.0000        1                 
 31                  0.3500           0.3500         3.511e-05        
                   8.279e-05         25.0000        1                 
 32                  0.3500           0.3500         1.021e-05        
                   1.182e-04         25.0000        1                 
 33                  0.3499           0.3499         1.173e-05        
                   5.604e-05         25.0000        1                 
 34                  0.3500           0.3500         1.312e-05        
                   1.583e-04         25.0000        1                 
 35                  0.3500           0.3499         1.631e-05        
                   4.913e-05         25.0000        1                 
 36                  0.3500           0.3500         1.858e-05        
                   1.913e-04         25.0000        1                 
 37                  0.3500           0.3500         2.191e-05        
                   5.532e-05         25.0000        1                 
 38                  0.3499           0.3500         1.178e-05        
                   5.120e-05         25.0000        1                 
 39                  0.3499           0.3500         1.252e-05        
                   3.420e-05         25.0000        1                 
 40                  0.3499           0.3500         1.358e-05        
                   5.294e-05         25.0000        1                 
 41                  0.3500           0.3500         1.522e-05        
                   7.279e-05         25.0000        1                 
 42                  0.3500           0.3500         2.155e-05        
                   8.055e-05         25.0000        1                 
 43                  0.3500           0.3500         1.889e-05        
                   1.124e-04         25.0000        1                 
 44                  0.3500           0.3500         1.782e-05        
                   2.135e-04         25.0000        1                 
 45                  0.3500           0.3500         1.126e-05        
                   9.052e-05         25.0000        1                 
 46                  0.3500           0.3499         1.031e-05        
                   1.203e-04         25.0000        1                 
 47                  0.3500           0.3500         1.446e-05        
                   8.998e-05         25.0000        1                 
 48                  0.3500           0.3500         2.165e-05        
                   8.409e-05         25.0000        1                 
 49                  0.3500           0.3500         1.881e-05        
                   7.962e-05         25.0000        1                 
 50                  0.3500           0.3500         1.917e-05        
                   1.125e-04         25.0000        1                 
 51                  0.3499           0.3499         1.413e-05        
                   5.067e-05         25.0000        1                 
 52                  0.3499           0.3500         1.653e-05        
                   4.060e-05         25.0000        1                 
 53                  0.3500           0.3500         1.311e-05        
                   1.610e-04         25.0000        1                 
 54                  0.3499           0.3499         1.712e-05        
                   4.866e-05         25.0000        1                 
 55                  0.3499           0.3499         1.472e-05        
                   3.469e-05         25.0000        1                 
 56                  0.3500           0.3500         2.037e-05        
                   9.455e-05         25.0000        1                 
 57                  0.3499           0.3499         9.812e-06        
                   5.026e-05         25.0000        1                 
 58                  0.3500           0.3499         2.513e-05        
                   5.942e-05         25.0000        1                 
 59                  0.3499           0.3500         2.252e-05        
                   3.790e-05         25.0000        1                 
 60                  0.3500           0.3499         2.910e-05        
                   1.144e-04         25.0000        1                 
 61                  0.3499           0.3500         1.361e-05        
                   3.462e-05         25.0000        1                 
 62                  0.3499           0.3500         1.353e-05        
                   3.159e-05         25.0000        1                 
 63                  0.3499           0.3500         1.381e-05        
                   4.866e-05         25.0000        1                 
 64                  0.3500           0.3499         1.988e-05        
                   8.687e-05         25.0000        1                 
 65                  0.3499           0.3500         1.449e-05        
                   4.453e-05         25.0000        1                 
 66                  0.3500           0.3499         1.866e-05        
                   7.231e-05         25.0000        1                 
 67                  0.3500           0.3500         9.923e-06        
                   1.938e-04         25.0000        1                 
 68                  0.3500           0.3500         1.426e-05        
                   6.152e-05         25.0000        1                 
 69                  0.3500           0.3500         2.979e-05        
                   7.794e-05         25.0000        1                 
 70                  0.3500           0.3499         1.848e-05        
                   5.537e-05         25.0000        1                 
 71                  0.3500           0.3500         2.517e-05        
                   1.404e-04         25.0000        1                 
 72                  0.3499           0.3500         9.797e-06        
                   3.638e-05         25.0000        1                 
 73                  0.3500           0.3500         3.066e-05        
                   1.600e-04         25.0000        1                 
 74                  0.3500           0.3500         1.144e-05        
                   6.324e-05         25.0000        1                 
 75                  0.3500           0.3500         2.276e-05        
                   8.669e-05         25.0000        1                 
 76                  0.3500           0.3500         2.948e-05        
                   1.023e-04         25.0000        1                 
 77                  0.3499           0.3500         1.492e-05        
                   3.532e-05         25.0000        1                 
 78                  0.3500           0.3500         2.508e-05        
                   1.132e-04         25.0000        1                 
 79                  0.3499           0.3499         1.077e-05        
                   4.916e-05         25.0000        1                 
 80                  0.3500           0.3500         1.952e-05        
                   6.235e-05         25.0000        1                 
 81                  0.3499           0.3499         1.544e-05        
                   4.129e-05         25.0000        1                 
 82                  0.3500           0.3500         1.054e-05        
                   9.822e-05         25.0000        1                 
 83                  0.3500           0.3500         1.745e-05        
                   1.120e-04         25.0000        1                 
 84                  0.3500           0.3500         1.031e-05        
                   1.955e-04         25.0000        1                 
 85                  0.3499           0.3499         1.079e-05        
                   5.733e-05         25.0000        1                 
 86                  0.3500           0.3500         1.015e-05        
                   1.242e-04         25.0000        1                 
 87                  0.3500           0.3500         1.841e-05        
                   1.311e-04         25.0000        1                 
 88                  0.3499           0.3500         1.385e-05        
                   3.560e-05         25.0000        1                 
 89                  0.3500           0.3500         3.101e-05        
                   7.587e-05         25.0000        1                 
 90                  0.3499           0.3500         1.351e-05        
                   3.690e-05         25.0000        1                 
 91                  0.3499           0.3499         8.548e-06        
                   5.086e-05         25.0000        1                 
 92                  0.3500           0.3499         2.579e-05        
                   1.088e-04         25.0000        1                 
 93                  0.3500           0.3500         1.359e-05        
                   7.888e-05         25.0000        1                 
 94                  0.3500           0.3500         2.139e-05        
                   7.976e-05         25.0000        1                 
 95                  0.3500           0.3500         1.153e-05        
                   1.062e-04         25.0000        1                 
 96                  0.3500           0.3500         2.441e-05        
                   7.576e-05         25.0000        1                 
 97                  0.3499           0.3500         1.559e-05        
                   4.793e-05         25.0000        1                 
 98                  0.3500           0.3500         3.266e-05        
                   1.504e-04         25.0000        1                 
 99                  0.3499           0.3500         1.696e-05        
                   4.652e-05         25.0000        1                 
 100                 0.3500           0.3500         1.690e-05        
                   1.225e-04         25.0000        1                 
 101                 0.3500           0.3499         1.655e-05        
                   8.269e-05         25.0000        1                 
 102                 0.3500           0.3500         1.226e-05        
                   9.200e-05         25.0000        1                 
 103                 0.3500           0.3500         9.939e-06        
                   7.681e-05         25.0000        1                 
 104                 0.3499           0.3500         9.647e-06        
                   2.255e-05         25.0000        1                 
 105                 0.3500           0.3499         2.936e-05        
                   6.042e-05         25.0000        1                 
 106                 0.3499           0.3498         1.044e-05        
                   5.322e-05         25.0000        1                 
 107                 0.3500           0.3500         4.395e-05        
                   1.164e-04         25.0000        1                 
 108                 0.3500           0.3500         2.125e-05        
                   4.767e-05         25.0000        1                 
 109                 0.3499           0.3500         1.861e-05        
                   4.989e-05         25.0000        1                 
 110                 0.3500           0.3500         1.808e-05        
                   1.013e-04         25.0000        1                 
 111                 0.3500           0.3500         8.352e-06        
                   3.349e-04         25.0000        1                 
 112                 0.3500           0.3499         1.565e-05        
                   9.330e-05         25.0000        1                 
 113                 0.3499           0.3500         1.338e-05        
                   4.005e-05         25.0000        1                 
 114                 0.3499           0.3500         1.552e-05        
                   3.118e-05         25.0000        1                 
 115                 0.3499           0.3499         8.135e-06        
                   7.880e-05         25.0000        1                 
 116                 0.3500           0.3500         3.442e-05        
                   8.558e-05         25.0000        1                 
 117                 0.3500           0.3499         2.507e-05        
                   1.370e-04         25.0000        1                 
 118                 0.3500           0.3499         5.928e-05        
                   3.433e-04         25.0000        1                 
 119                 0.3499           0.3500         1.249e-05        
                   3.620e-05         25.0000        1                 
 120                 0.3499           0.3499         1.467e-05        
                   5.171e-05         25.0000        1                 
 121                 0.3500           0.3500         2.121e-05        
                   6.773e-05         25.0000        1                 
 122                 0.3500           0.3500         1.974e-05        
                   1.149e-04         25.0000        1                 
 123                 0.3500           0.3500         1.592e-05        
                   7.412e-05         25.0000        1                 
 124                 0.3499           0.3500         1.299e-05        
                   4.600e-05         25.0000        1                 
 125                 0.3499           0.3499         1.512e-05        
                   3.998e-05         25.0000        1                 
 126                 0.3500           0.3500         1.671e-05        
                   5.602e-05         25.0000        1                 
 127                 0.3500           0.3500         2.619e-05        
                   8.802e-05         25.0000        1                 
 128                 0.3500           0.3500         1.193e-05        
                   7.963e-05         25.0000        1                 
 129                 0.3500           0.3500         1.885e-05        
                   1.018e-04         25.0000        1                 
 130                 0.3499           0.3499         1.220e-05        
                   3.026e-05         25.0000        1                 
 131                 0.3498           0.3499         6.723e-06        
                   2.074e-05         25.0000        1                 
 132                 0.3500           0.3500         1.498e-05        
                   1.782e-04         25.0000        1                 
 133                 0.3500           0.3500         1.438e-05        
                   5.937e-05         25.0000        1                 
 134                 0.3499           0.3499         1.345e-05        
                   4.416e-05         25.0000        1                 
 135                 0.3500           0.3500         3.149e-05        
                   1.362e-04         25.0000        1                 
 136                 0.3499           0.3499         1.058e-05        
                   7.140e-05         25.0000        1                 
 137                 0.3499           0.3500         1.090e-05        
                   4.421e-05         25.0000        1                 
 138                 0.3500           0.3500         1.478e-05        
                   3.092e-04         25.0000        1                 
 139                 0.3498           0.3499         5.585e-06        
                   3.492e-05         25.0000        1                 
 140                 0.3500           0.3500         2.103e-05        
                   7.915e-05         25.0000        1                 
 141                 0.3500           0.3500         3.630e-05        
                   1.604e-04         25.0000        1                 
 142                 0.3500           0.3500         1.671e-05        
                   4.996e-05         25.0000        1                 
 143                 0.3500           0.3500         1.654e-05        
                   1.248e-04         25.0000        1                 
 144                 0.3500           0.3500         1.547e-05        
                   1.901e-04         25.0000        1                 
 145                 0.3500           0.3500         2.266e-05        
                   2.120e-04         25.0000        1                 
 146                 0.3500           0.3500         2.952e-05        
                   9.359e-05         25.0000        1                 
 147                 0.3500           0.3500         2.300e-05        
                   5.896e-05         25.0000        1                 
 148                 0.3500           0.3500         3.204e-05        
                   2.360e-04         25.0000        1                 
 149                 0.3500           0.3500         1.723e-05        
                   2.073e-04         25.0000        1                 
 150                 0.3500           0.3500         1.651e-05        
                   8.631e-05         25.0000        1                 
 151                 0.3500           0.3500         1.320e-05        
                   2.523e-04         25.0000        1                 
 152                 0.3500           0.3500         1.634e-05        
                   8.299e-05         25.0000        1                 
 153                 0.3500           0.3499         1.625e-05        
                   4.487e-05         25.0000        1                 
 154                 0.3500           0.3500         2.583e-05        
                   8.865e-05         25.0000        1                 
 155                 0.3500           0.3500         7.528e-06        
                   1.240e-04         25.0000        1                 
 156                 0.3500           0.3500         2.127e-05        
                   1.658e-04         25.0000        1                 
 157                 0.3499           0.3500         1.083e-05        
                   5.762e-05         25.0000        1                 
 158                 0.3500           0.3499         1.234e-05        
                   7.527e-05         25.0000        1                 
 159                 0.3499           0.3500         1.054e-05        
                   3.384e-05         25.0000        1                 
 160                 0.3500           0.3500         1.111e-05        
                   6.567e-05         25.0000        1                 
 161                 0.3499           0.3500         7.271e-06        
                   7.711e-05         25.0000        1                 
 162                 0.3500           0.3500         2.061e-05        
                   1.152e-04         25.0000        1                 
 163                 0.3499           0.3499         9.049e-06        
                   5.953e-05         25.0000        1                 
 164                 0.3500           0.3499         2.175e-05        
                   6.981e-05         25.0000        1                 
 165                 0.3499           0.3500         7.801e-06        
                   3.150e-05         25.0000        1                 
 166                 0.3500           0.3500         1.381e-05        
                   8.819e-05         25.0000        1                 
 167                 0.3499           0.3499         1.799e-05        
                   3.984e-05         25.0000        1                 
 168                 0.3500           0.3499         2.161e-05        
                   7.635e-05         25.0000        1                 
 169                 0.3499           0.3499         1.565e-05        
                   4.843e-05         25.0000        1                 
 170                 0.3500           0.3499         2.248e-05        
                   1.063e-04         25.0000        1                 
 171                 0.3499           0.3500         1.952e-05        
                   4.031e-05         25.0000        1                 
 172                 0.3500           0.3500         1.838e-05        
                   6.261e-05         25.0000        1                 
 173                 0.3500           0.3500         1.657e-05        
                   1.487e-04         25.0000        1                 
 174                 0.3499           0.3498         1.548e-05        
                   3.730e-05         25.0000        1                 
 175                 0.3500           0.3500         1.838e-05        
                   1.050e-04         25.0000        1                 
 176                 0.3499           0.3500         1.163e-05        
                   5.666e-05         25.0000        1                 
 177                 0.3500           0.3500         1.399e-05        
                   7.701e-05         25.0000        1                 
 178                 0.3500           0.3499         2.064e-05        
                   7.326e-05         25.0000        1                 
 179                 0.3500           0.3499         1.425e-05        
                   6.225e-05         25.0000        1                 
 180                 0.3500           0.3499         1.775e-05        
                   2.956e-04         25.0000        1                 
 181                 0.3500           0.3500         2.051e-05        
                   8.926e-05         25.0000        1                 
 182                 0.3500           0.3500         1.327e-05        
                   6.365e-05         25.0000        1                 
 183                 0.3500           0.3500         1.554e-05        
                   6.157e-05         25.0000        1                 
 184                 0.3500           0.3500         1.416e-05        
                   9.085e-05         25.0000        1                 
 185                 0.3499           0.3500         1.209e-05        
                   5.372e-05         25.0000        1                 
 186                 0.3500           0.3500         2.270e-05        
                   4.910e-05         25.0000        1                 
 187                 0.3499           0.3499         5.857e-06        
                   5.300e-05         25.0000        1                 
 188                 0.3500           0.3499         1.313e-05        
                   1.196e-04         25.0000        1                 
 189                 0.3500           0.3500         9.506e-06        
                   8.229e-05         25.0000        1                 
 190                 0.3500           0.3500         1.443e-05        
                   6.207e-05         25.0000        1                 
 191                 0.3500           0.3500         2.831e-05        
                   1.125e-04         25.0000        1                 
 192                 0.3500           0.3500         1.007e-05        
                   8.703e-05         25.0000        1                 
 193                 0.3499           0.3500         1.454e-05        
                   3.364e-05         25.0000        1                 
 194                 0.3500           0.3500         1.555e-05        
                   8.214e-05         25.0000        1                 
 195                 0.3500           0.3500         1.408e-05        
                   9.688e-05         25.0000        1                 
 196                 0.3500           0.3500         1.710e-05        
                   1.492e-04         25.0000        1                 
 197                 0.3500           0.3499         1.589e-05        
                   6.081e-05         25.0000        1                 
 198                 0.3500           0.3499         2.196e-05        
                   1.276e-04         25.0000        1                 
 199                 0.3500           0.3499         2.456e-05        
                   1.640e-04         25.0000        1                 
 200                 0.3499           0.3500         8.268e-06        
                   3.413e-05         25.0000        1                 
 201                 0.3500           0.3500         1.672e-05        
                   7.102e-05         25.0000        1                 
 202                 0.3499           0.3500         9.517e-06        
                   3.400e-05         25.0000        1                 
 203                 0.3499           0.3500         7.746e-06        
                   7.404e-05         25.0000        1                 
 204                 0.3499           0.3499         1.157e-05        
                   3.927e-05         25.0000        1                 
 205                 0.3499           0.3500         9.766e-06        
                   3.605e-05         25.0000        1                 
 206                 0.3500           0.3500         1.818e-05        
                   7.207e-05         25.0000        1                 
 207                 0.3499           0.3499         1.661e-05        
                   5.461e-05         25.0000        1                 
 208                 0.3500           0.3500         2.219e-05        
                   7.116e-05         25.0000        1                 
 209                 0.3500           0.3499         2.483e-05        
                   7.937e-05         25.0000        1                 
 210                 0.3500           0.3500         2.013e-05        
                   1.108e-04         25.0000        1                 
 211                 0.3500           0.3499         1.688e-05        
                   8.479e-05         25.0000        1                 
 212                 0.3500           0.3499         1.317e-05        
                   1.061e-04         25.0000        1                 
 213                 0.3500           0.3500         1.967e-05        
                   1.071e-04         25.0000        1                 
 214                 0.3500           0.3500         1.449e-05        
                   6.896e-05         25.0000        1                 
 215                 0.3500           0.3500         1.720e-05        
                   1.048e-04         25.0000        1                 
 216                 0.3500           0.3499         1.395e-05        
                   6.556e-05         25.0000        1                 
 217                 0.3499           0.3500         1.839e-05        
                   3.578e-05         25.0000        1                 
 218                 0.3500           0.3500         1.886e-05        
                   1.442e-04         25.0000        1                 
 219                 0.3500           0.3500         2.118e-05        
                   5.437e-05         25.0000        1                 
 220                 0.3500           0.3500         1.768e-05        
                   1.042e-04         25.0000        1                 
 221                 0.3500           0.3500         1.988e-05        
                   7.212e-05         25.0000        1                 
 222                 0.3500           0.3500         2.882e-05        
                   1.016e-04         25.0000        1                 
 223                 0.3499           0.3500         1.243e-05        
                   4.867e-05         25.0000        1                 
 224                 0.3500           0.3500         2.698e-05        
                   8.860e-05         25.0000        1                 
 225                 0.3500           0.3500         1.457e-05        
                   7.774e-05         25.0000        1                 
 226                 0.3499           0.3499         8.562e-06        
                   1.171e-04         25.0000        1                 
 227                 0.3500           0.3500         1.066e-05        
                   8.520e-05         25.0000        1                 
 228                 0.3499           0.3500         9.067e-06        
                   4.870e-05         25.0000        1                 
 229                 0.3500           0.3500         2.620e-05        
                   1.244e-04         25.0000        1                 
 230                 0.3500           0.3500         1.419e-05        
                   1.182e-04         25.0000        1                 
 231                 0.3500           0.3499         1.177e-05        
                   7.252e-05         25.0000        1                 
 232                 0.3499           0.3499         1.023e-05        
                   4.424e-05         25.0000        1                 
 233                 0.3499           0.3500         6.566e-06        
                   9.330e-05         25.0000        1                 
 234                 0.3500           0.3500         2.092e-05        
                   7.626e-05         25.0000        1                 
 235                 0.3499           0.3499         1.300e-05        
                   3.565e-05         25.0000        1                 
 236                 0.3500           0.3497         1.172e-05        
                   1.466e-04         25.0000        1                 
 237                 0.3500           0.3499         2.741e-05        
                   2.287e-04         25.0000        1                 
 238                 0.3499           0.3500         1.427e-05        
                   4.808e-05         25.0000        1                 
 239                 0.3499           0.3499         9.824e-06        
                   3.421e-05         25.0000        1                 
 240                 0.3499           0.3499         1.268e-05        
                   4.492e-05         25.0000        1                 
 241                 0.3500           0.3500         1.006e-05        
                   1.345e-04         25.0000        1                 
 242                 0.3500           0.3499         1.948e-05        
                   9.788e-05         25.0000        1                 
 243                 0.3500           0.3498         1.653e-05        
                   1.625e-04         25.0000        1                 
 244                 0.3500           0.3500         2.300e-05        
                   7.688e-05         25.0000        1                 
 245                 0.3500           0.3498         2.939e-05        
                   1.135e-04         25.0000        1                 
 246                 0.3500           0.3500         1.598e-05        
                   5.509e-05         25.0000        1                 
 247                 0.3500           0.3500         1.633e-05        
                   1.154e-04         25.0000        1                 
 248                 0.3499           0.3500         1.124e-05        
                   6.298e-05         25.0000        1                 
 249                 0.3500           0.3499         1.383e-05        
                   1.622e-04         25.0000        1                 
 250                 0.3500           0.3500         1.020e-05        
                   2.692e-04         25.0000        1                 
 251                 0.3499           0.3500         1.770e-05        
                   3.573e-05         25.0000        1                 
 252                 0.3499           0.3500         8.569e-06        
                   5.188e-05         25.0000        1                 
 253                 0.3500           0.3500         1.608e-05        
                   1.829e-04         25.0000        1                 
 254                 0.3499           0.3500         1.060e-05        
                   4.725e-05         25.0000        1                 
 255                 0.3499           0.3500         1.173e-05        
                   4.783e-05         25.0000        1                 
 256                 0.3500           0.3500         1.754e-05        
                   5.994e-05         25.0000        1                 
 257                 0.3499           0.3500         1.257e-05        
                   6.456e-05         25.0000        1                 
 258                 0.3500           0.3500         2.585e-05        
                   8.691e-05         25.0000        1                 
 259                 0.3500           0.3500         2.613e-05        
                   2.391e-04         25.0000        1                 
 260                 0.3499           0.3500         8.414e-06        
                   3.957e-05         25.0000        1                 
 261                 0.3500           0.3499         2.335e-05        
                   5.521e-05         25.0000        1                 
 262                 0.3499           0.3499         1.252e-05        
                   3.975e-05         25.0000        1                 
 263                 0.3500           0.3499         2.066e-05        
                   8.677e-05         25.0000        1                 
 264                 0.3500           0.3500         2.860e-05        
                   1.349e-04         25.0000        1                 
 265                 0.3500           0.3500         1.441e-05        
                   1.397e-04         25.0000        1                 
 266                 0.3499           0.3500         1.093e-05        
                   3.457e-05         25.0000        1                 
 267                 0.3500           0.3499         1.647e-05        
                   9.815e-05         25.0000        1                 
 268                 0.3500           0.3499         2.561e-05        
                   9.382e-05         25.0000        1                 
 269                 0.3499           0.3500         1.019e-05        
                   4.789e-05         25.0000        1                 
 270                 0.3500           0.3499         1.124e-05        
                   1.138e-04         25.0000        1                 
 271                 0.3500           0.3500         1.698e-05        
                   5.422e-05         25.0000        1                 
 272                 0.3500           0.3500         2.829e-05        
                   1.446e-04         25.0000        1                 
 273                 0.3498           0.3500         7.039e-06        
                   3.188e-05         25.0000        1                 
 274                 0.3500           0.3500         3.866e-05        
                   1.586e-04         25.0000        1                 
 275                 0.3499           0.3500         1.099e-05        
                   3.753e-05         25.0000        1                 
 276                 0.3500           0.3500         1.874e-05        
                   1.038e-04         25.0000        1                 
 277                 0.3500           0.3500         1.566e-05        
                   2.180e-04         25.0000        1                 
 278                 0.3499           0.3500         7.967e-06        
                   3.946e-05         25.0000        1                 
 279                 0.3500           0.3499         1.642e-05        
                   8.621e-05         25.0000        1                 
 280                 0.3500           0.3499         1.494e-05        
                   6.894e-05         25.0000        1                 
 281                 0.3499           0.3499         1.187e-05        
                   1.792e-05         25.0000        1                 
 282                 0.3500           0.3499         1.392e-05        
                   7.321e-05         25.0000        1                 
 283                 0.3500           0.3499         8.520e-06        
                   9.990e-05         25.0000        1                 
 284                 0.3499           0.3500         9.974e-06        
                   3.445e-05         25.0000        1                 
 285                 0.3500           0.3500         9.933e-06        
                   6.334e-05         25.0000        1                 
 286                 0.3499           0.3500         1.450e-05        
                   3.476e-05         25.0000        1                 
 287                 0.3500           0.3500         2.141e-05        
                   1.423e-04         25.0000        1                 
 288                 0.3500           0.3500         1.699e-05        
                   5.994e-05         25.0000        1                 
 289                 0.3500           0.3500         2.275e-05        
                   9.616e-05         25.0000        1                 
 290                 0.3499           0.3500         1.036e-05        
                   5.117e-05         25.0000        1                 
 291                 0.3500           0.3500         1.612e-05        
                   1.352e-04         25.0000        1                 
 292                 0.3500           0.3500         2.259e-05        
                   9.483e-05         25.0000        1                 
 293                 0.3500           0.3499         1.065e-05        
                   1.403e-04         25.0000        1                 
 294                 0.3500           0.3500         2.970e-05        
                   1.716e-04         25.0000        1                 
 295                 0.3499           0.3499         9.397e-06        
                   5.304e-05         25.0000        1                 
 296                 0.3500           0.3500         1.952e-05        
                   7.209e-05         25.0000        1                 
 297                 0.3499           0.3500         1.418e-05        
                   4.200e-05         25.0000        1                 
 298                 0.3500           0.3500         1.726e-05        
                   1.013e-04         25.0000        1                 
 299                 0.3500           0.3499         1.430e-05        
                   9.639e-05         25.0000        1                 
 300                 0.3500           0.3499         3.353e-05        
                   9.249e-05         25.0000        1                 
 301                 0.3500           0.3499         2.194e-05        
                   5.187e-05         25.0000        1                 
 302                 0.3500           0.3499         1.386e-05        
                   8.287e-05         25.0000        1                 
 303                 0.3500           0.3500         1.186e-05        
                   9.020e-05         25.0000        1                 
 304                 0.3500           0.3499         3.015e-05        
                   1.172e-04         25.0000        1                 
 305                 0.3500           0.3500         1.450e-05        
                   1.347e-04         25.0000        1                 
 306                 0.3500           0.3500         2.686e-05        
                   6.521e-05         25.0000        1                 
 307                 0.3499           0.3500         1.316e-05        
                   3.675e-05         25.0000        1                 
 308                 0.3499           0.3500         1.692e-05        
                   4.293e-05         25.0000        1                 
 309                 0.3500           0.3499         2.002e-05        
                   5.401e-05         25.0000        1                 
 310                 0.3500           0.3500         1.879e-05        
                   7.298e-05         25.0000        1                 
 311                 0.3500           0.3500         2.035e-05        
                   1.287e-04         25.0000        1                 
 312                 0.3500           0.3499         3.433e-05        
                   1.159e-04         25.0000        1                 
 313                 0.3499           0.3500         9.514e-06        
                   3.165e-05         25.0000        1                 
 314                 0.3499           0.3500         1.205e-05        
                   3.821e-05         25.0000        1                 
 315                 0.3500           0.3499         1.123e-05        
                   1.697e-04         25.0000        1                 
 316                 0.3500           0.3500         1.796e-05        
                   6.064e-05         25.0000        1                 
 317                 0.3500           0.3499         1.368e-05        
                   1.256e-04         25.0000        1                 
 318                 0.3500           0.3500         2.147e-05        
                   1.301e-04         25.0000        1                 
 319                 0.3499           0.3500         1.587e-05        
                   4.329e-05         25.0000        1                 
 320                 0.3499           0.3500         1.013e-05        
                   3.434e-05         25.0000        1                 
 321                 0.3500           0.3500         1.580e-05        
                   1.089e-04         25.0000        1                 
 322                 0.3500           0.3500         2.021e-05        
                   4.339e-05         25.0000        1                 
 323                 0.3500           0.3500         8.255e-06        
                   8.322e-05         25.0000        1                 
 324                 0.3500           0.3500         1.189e-05        
                   6.676e-05         25.0000        1                 
 325                 0.3499           0.3500         9.780e-06        
                   1.922e-05         25.0000        1                 
 326                 0.3500           0.3500         4.092e-05        
                   1.707e-04         25.0000        1                 
 327                 0.3500           0.3500         2.232e-05        
                   1.080e-04         25.0000        1                 
 328                 0.3500           0.3500         1.526e-05        
                   5.740e-05         25.0000        1                 
 329                 0.3500           0.3499         1.328e-05        
                   1.042e-04         25.0000        1                 
 330                 0.3500           0.3500         1.779e-05        
                   7.387e-05         25.0000        1                 
 331                 0.3499           0.3500         1.120e-05        
                   4.744e-05         25.0000        1                 
 332                 0.3499           0.3498         9.933e-06        
                   2.538e-05         25.0000        1                 
 333                 0.3500           0.3499         1.156e-05        
                   6.595e-05         25.0000        1                 
 334                 0.3500           0.3497         2.007e-05        
                   8.609e-05         25.0000        1                 
 335                 0.3500           0.3499         1.584e-05        
                   7.046e-05         25.0000        1                 
 336                 0.3500           0.3499         2.417e-05        
                   1.579e-04         25.0000        1                 
 337                 0.3499           0.3500         1.187e-05        
                   3.151e-05         25.0000        1                 
 338                 0.3500           0.3500         1.885e-05        
                   5.216e-05         25.0000        1                 
 339                 0.3500           0.3500         2.649e-05        
                   5.679e-05         25.0000        1                 
 340                 0.3500           0.3500         1.302e-05        
                   1.346e-04         25.0000        1                 
 341                 0.3499           0.3500         1.376e-05        
                   4.763e-05         25.0000        1                 
 342                 0.3499           0.3499         7.507e-06        
                   6.119e-05         25.0000        1                 
 343                 0.3499           0.3500         7.584e-06        
                   5.035e-05         25.0000        1                 
 344                 0.3500           0.3500         2.097e-05        
                   1.143e-04         25.0000        1                 
 345                 0.3500           0.3500         2.283e-05        
                   1.139e-04         25.0000        1                 
 346                 0.3499           0.3500         1.200e-05        
                   4.690e-05         25.0000        1                 
 347                 0.3499           0.3499         2.110e-05        
                   3.099e-05         25.0000        1                 
 348                 0.3499           0.3500         1.326e-05        
                   4.054e-05         25.0000        1                 
 349                 0.3499           0.3500         8.825e-06        
                   8.094e-05         25.0000        1                 
 350                 0.3500           0.3499         1.020e-05        
                   1.351e-04         25.0000        1                 
 351                 0.3499           0.3500         8.036e-06        
                   3.593e-05         25.0000        1                 
 352                 0.3499           0.3500         1.338e-05        
                   2.938e-05         25.0000        1                 
 353                 0.3499           0.3500         1.159e-05        
                   4.650e-05         25.0000        1                 
 354                 0.3500           0.3500         1.544e-05        
                   9.308e-05         25.0000        1                 
 355                 0.3500           0.3500         1.625e-05        
                   8.045e-05         25.0000        1                 
 356                 0.3500           0.3500         3.277e-05        
                   1.099e-04         25.0000        1                 
 357                 0.3499           0.3499         1.056e-05        
                   3.755e-05         25.0000        1                 
 358                 0.3500           0.3500         1.332e-05        
                   5.558e-05         25.0000        1                 
 359                 0.3500           0.3500         1.841e-05        
                   9.003e-05         25.0000        1                 
 360                 0.3500           0.3500         1.260e-05        
                   8.411e-05         25.0000        1                 
 361                 0.3500           0.3500         1.275e-05        
                   6.436e-05         25.0000        1                 
 362                 0.3500           0.3500         1.314e-05        
                   5.586e-05         25.0000        1                 
 363                 0.3499           0.3499         6.462e-06        
                   6.739e-05         25.0000        1                 
 364                 0.3500           0.3500         2.058e-05        
                   7.552e-05         25.0000        1                 
 365                 0.3500           0.3499         1.957e-05        
                   1.104e-04         25.0000        1                 
 366                 0.3500           0.3499         1.577e-05        
                   1.033e-04         25.0000        1                 
 367                 0.3500           0.3500         2.697e-05        
                   7.430e-05         25.0000        1                 
 368                 0.3500           0.3500         1.217e-05        
                   4.320e-05         25.0000        1                 
 369                 0.3499           0.3500         1.686e-05        
                   3.289e-05         25.0000        1                 
 370                 0.3499           0.3498         7.801e-06        
                   6.750e-05         25.0000        1                 
 371                 0.3499           0.3500         1.424e-05        
                   4.621e-05         25.0000        1                 
 372                 0.3500           0.3499         2.561e-05        
                   2.877e-04         25.0000        1                 
 373                 0.3500           0.3500         1.397e-05        
                   1.203e-04         25.0000        1                 
 374                 0.3499           0.3500         1.135e-05        
                   5.270e-05         25.0000        1                 
 375                 0.3500           0.3499         1.256e-05        
                   8.504e-05         25.0000        1                 
 376                 0.3500           0.3500         1.238e-05        
                   1.588e-04         25.0000        1                 
 377                 0.3500           0.3500         1.504e-05        
                   6.552e-05         25.0000        1                 
 378                 0.3499           0.3500         1.454e-05        
                   3.766e-05         25.0000        1                 
 379                 0.3500           0.3499         1.281e-05        
                   9.223e-05         25.0000        1                 
 380                 0.3500           0.3500         1.458e-05        
                   8.833e-05         25.0000        1                 
 381                 0.3500           0.3500         6.509e-05        
                   2.427e-04         25.0000        1                 
 382                 0.3499           0.3499         1.372e-05        
                   4.868e-05         25.0000        1                 
 383                 0.3499           0.3500         1.513e-05        
                   4.059e-05         25.0000        1                 
 384                 0.3500           0.3499         1.368e-05        
                   7.796e-05         25.0000        1                 
 385                 0.3500           0.3500         1.306e-05        
                   6.699e-05         25.0000        1                 
 386                 0.3500           0.3499         3.153e-05        
                   9.844e-05         25.0000        1                 
 387                 0.3500           0.3500         1.282e-05        
                   8.691e-05         25.0000        1                 
 388                 0.3500           0.3500         2.533e-05        
                   8.926e-05         25.0000        1                 
 389                 0.3500           0.3500         2.233e-05        
                   5.376e-05         25.0000        1                 
 390                 0.3500           0.3500         1.537e-05        
                   1.131e-04         25.0000        1                 
 391                 0.3500           0.3499         9.258e-06        
                   8.088e-05         25.0000        1                 
 392                 0.3500           0.3500         1.069e-05        
                   6.287e-05         25.0000        1                 
 393                 0.3500           0.3500         1.696e-05        
                   1.080e-04         25.0000        1                 
 394                 0.3500           0.3500         2.137e-05        
                   1.724e-04         25.0000        1                 
 395                 0.3500           0.3499         1.680e-05        
                   6.949e-05         25.0000        1                 
 396                 0.3499           0.3500         9.658e-06        
                   5.561e-05         25.0000        1                 
 397                 0.3500           0.3499         1.890e-05        
                   6.636e-05         25.0000        1                 
 398                 0.3500           0.3499         3.424e-05        
                   1.367e-04         25.0000        1                 
 399                 0.3500           0.3500         2.116e-05        
                   6.437e-05         25.0000        1                 
 400                 0.3499           0.3499         1.066e-05        
                   4.368e-05         25.0000        1                 
 401                 0.3499           0.3499         1.551e-05        
                   4.463e-05         25.0000        1                 
 402                 0.3500           0.3500         1.439e-05        
                   5.263e-05         25.0000        1                 
 403                 0.3499           0.3500         1.370e-05        
                   5.803e-05         25.0000        1                 
 404                 0.3500           0.3500         1.396e-05        
                   8.992e-05         25.0000        1                 
 405                 0.3500           0.3500         3.698e-05        
                   2.263e-04         25.0000        1                 
 406                 0.3499           0.3498         7.182e-06        
                   3.430e-05         25.0000        1                 
 407                 0.3500           0.3499         4.196e-05        
                   1.718e-04         25.0000        1                 
 408                 0.3500           0.3500         1.514e-05        
                   5.645e-05         25.0000        1                 
 409                 0.3499           0.3499         8.289e-06        
                   3.615e-05         25.0000        1                 
 410                 0.3500           0.3500         1.036e-05        
                   9.253e-05         25.0000        1                 
 411                 0.3500           0.3500         1.407e-05        
                   1.478e-04         25.0000        1                 
 412                 0.3500           0.3500         2.163e-05        
                   5.619e-05         25.0000        1                 
 413                 0.3499           0.3499         1.545e-05        
                   3.632e-05         25.0000        1                 
 414                 0.3500           0.3500         2.681e-05        
                   1.676e-04         25.0000        1                 
 415                 0.3499           0.3500         1.217e-05        
                   3.654e-05         25.0000        1                 
 416                 0.3499           0.3500         1.535e-05        
                   4.085e-05         25.0000        1                 
 417                 0.3500           0.3500         1.464e-05        
                   6.183e-05         25.0000        1                 
 418                 0.3499           0.3500         9.158e-06        
                   5.746e-05         25.0000        1                 
 419                 0.3500           0.3500         1.176e-05        
                   8.330e-05         25.0000        1                 
 420                 0.3499           0.3499         1.539e-05        
                   4.480e-05         25.0000        1                 
 421                 0.3500           0.3500         1.477e-05        
                   8.248e-05         25.0000        1                 
 422                 0.3499           0.3499         8.472e-06        
                   2.803e-05         25.0000        1                 
 423                 0.3500           0.3499         2.420e-05        
                   8.137e-05         25.0000        1                 
 424                 0.3500           0.3500         3.727e-05        
                   1.930e-04         25.0000        1                 
 425                 0.3500           0.3500         1.312e-05        
                   9.785e-05         25.0000        1                 
 426                 0.3499           0.3499         7.394e-06        
                   4.761e-05         25.0000        1                 
 427                 0.3500           0.3500         1.350e-05        
                   7.590e-05         25.0000        1                 
 428                 0.3500           0.3500         1.815e-05        
                   9.690e-05         25.0000        1                 
 429                 0.3499           0.3500         1.049e-05        
                   4.424e-05         25.0000        1                 
 430                 0.3500           0.3500         1.699e-05        
                   1.030e-04         25.0000        1                 
 431                 0.3500           0.3499         1.202e-05        
                   8.330e-05         25.0000        1                 
 432                 0.3500           0.3500         1.446e-05        
                   1.729e-04         25.0000        1                 
 433                 0.3500           0.3500         3.760e-05        
                   9.062e-05         25.0000        1                 
 434                 0.3500           0.3500         1.008e-05        
                   1.225e-04         25.0000        1                 
 435                 0.3499           0.3500         1.156e-05        
                   5.165e-05         25.0000        1                 
 436                 0.3500           0.3500         1.524e-05        
                   8.146e-05         25.0000        1                 
 437                 0.3499           0.3500         1.121e-05        
                   2.722e-05         25.0000        1                 
 438                 0.3500           0.3500         1.686e-05        
                   8.808e-05         25.0000        1                 
 439                 0.3499           0.3499         1.203e-05        
                   5.166e-05         25.0000        1                 
 440                 0.3500           0.3500         1.429e-05        
                   1.419e-04         25.0000        1                 
 441                 0.3499           0.3499         1.306e-05        
                   3.934e-05         25.0000        1                 
 442                 0.3500           0.3499         1.921e-05        
                   6.129e-05         25.0000        1                 
 443                 0.3500           0.3499         1.903e-05        
                   5.574e-05         25.0000        1                 
 444                 0.3499           0.3500         1.129e-05        
                   3.731e-05         25.0000        1                 
 445                 0.3499           0.3499         1.062e-05        
                   4.001e-05         25.0000        1                 
 446                 0.3500           0.3500         1.389e-05        
                   8.810e-05         25.0000        1                 
 447                 0.3499           0.3500         1.038e-05        
                   2.480e-05         25.0000        1                 
 448                 0.3499           0.3499         1.007e-05        
                   2.332e-05         25.0000        1                 
 449                 0.3500           0.3500         1.861e-05        
                   5.556e-05         25.0000        1                 
 450                 0.3500           0.3500         1.147e-05        
                   7.807e-05         25.0000        1                 
 451                 0.3500           0.3499         1.104e-05        
                   9.805e-05         25.0000        1                 
 452                 0.3500           0.3499         2.066e-05        
                   1.129e-04         25.0000        1                 
 453                 0.3500           0.3499         1.717e-05        
                   2.388e-04         25.0000        1                 
 454                 0.3500           0.3500         1.582e-05        
                   4.616e-05         25.0000        1                 
 455                 0.3500           0.3500         2.842e-05        
                   1.068e-04         25.0000        1                 
 456                 0.3500           0.3500         1.948e-05        
                   7.387e-05         25.0000        1                 
 457                 0.3499           0.3500         8.466e-06        
                   4.785e-05         25.0000        1                 
 458                 0.3500           0.3500         1.536e-05        
                   1.151e-04         25.0000        1                 
 459                 0.3500           0.3499         1.403e-05        
                   6.709e-05         25.0000        1                 
 460                 0.3500           0.3500         1.196e-05        
                   1.109e-04         25.0000        1                 
 461                 0.3500           0.3499         1.299e-05        
                   1.564e-04         25.0000        1                 
 462                 0.3500           0.3499         2.656e-05        
                   1.539e-04         25.0000        1                 
 463                 0.3498           0.3500         1.059e-05        
                   2.376e-05         25.0000        1                 
 464                 0.3500           0.3499         1.577e-05        
                   5.308e-05         25.0000        1                 
 465                 0.3500           0.3500         1.468e-05        
                   1.271e-04         25.0000        1                 
 466                 0.3500           0.3499         1.929e-05        
                   7.987e-05         25.0000        1                 
 467                 0.3500           0.3500         2.790e-05        
                   9.213e-05         25.0000        1                 
 468                 0.3499           0.3500         1.152e-05        
                   4.436e-05         25.0000        1                 
 469                 0.3499           0.3500         1.017e-05        
                   3.483e-05         25.0000        1                 
 470                 0.3500           0.3500         2.110e-05        
                   6.700e-05         25.0000        1                 
 471                 0.3500           0.3500         1.716e-05        
                   6.862e-05         25.0000        1                 
 472                 0.3500           0.3499         1.923e-05        
                   1.371e-04         25.0000        1                 
 473                 0.3500           0.3499         1.403e-05        
                   5.852e-05         25.0000        1                 
 474                 0.3499           0.3500         7.045e-06        
                   6.067e-05         25.0000        1                 
 475                 0.3500           0.3499         3.237e-05        
                   1.485e-04         25.0000        1                 
 476                 0.3499           0.3500         1.232e-05        
                   3.368e-05         25.0000        1                 
 477                 0.3500           0.3500         1.440e-05        
                   6.263e-05         25.0000        1                 
 478                 0.3500           0.3500         1.646e-05        
                   1.356e-04         25.0000        1                 
 479                 0.3500           0.3499         9.756e-06        
                   3.249e-04         25.0000        1                 
 480                 0.3500           0.3499         1.682e-05        
                   4.749e-05         25.0000        1                 
 481                 0.3500           0.3499         1.966e-05        
                   1.441e-04         25.0000        1                 
 482                 0.3500           0.3500         1.953e-05        
                   2.496e-04         25.0000        1                 
 483                 0.3499           0.3499         1.015e-05        
                   3.894e-05         25.0000        1                 
 484                 0.3499           0.3500         6.201e-06        
                   6.627e-05         25.0000        1                 
 485                 0.3499           0.3500         5.898e-06        
                   5.406e-05         25.0000        1                 
 486                 0.3500           0.3500         1.825e-05        
                   1.187e-04         25.0000        1                 
 487                 0.3500           0.3500         2.369e-05        
                   9.992e-05         25.0000        1                 
 488                 0.3499           0.3500         1.377e-05        
                   3.589e-05         25.0000        1                 
 489                 0.3500           0.3500         1.242e-05        
                   9.544e-05         25.0000        1                 
 490                 0.3500           0.3500         1.931e-05        
                   5.159e-05         25.0000        1                 
 491                 0.3499           0.3500         1.308e-05        
                   4.151e-05         25.0000        1                 
 492                 0.3500           0.3500         1.686e-05        
                   8.841e-05         25.0000        1                 
 493                 0.3500           0.3500         1.818e-05        
                   9.905e-05         25.0000        1                 
 494                 0.3499           0.3500         5.964e-06        
                   5.529e-05         25.0000        1                 
 495                 0.3500           0.3500         1.526e-05        
                   2.775e-04         25.0000        1                 
 496                 0.3500           0.3500         1.758e-05        
                   1.158e-04         25.0000        1                 
 497                 0.3499           0.3500         1.001e-05        
                   4.434e-05         25.0000        1                 
 498                 0.3500           0.3500         9.705e-06        
                   7.194e-05         25.0000        1                 
 499                 0.3500           0.3499         1.545e-05        
                   1.248e-04         25.0000        1                 
 500                 0.3500           0.3500         1.294e-05        
                   5.317e-05         25.0000        1                 
 501                 0.3500           0.3499         2.255e-05        
                   1.597e-04         25.0000        1                 
 502                 0.3499           0.3500         9.912e-06        
                   3.134e-05         25.0000        1                 
 503                 0.3500           0.3500         2.129e-05        
                   8.018e-05         25.0000        1                 
 504                 0.3500           0.3500         1.309e-05        
                   8.622e-05         25.0000        1                 
 505                 0.3500           0.3500         2.033e-05        
                   1.583e-04         25.0000        1                 
 506                 0.3500           0.3500         1.586e-05        
                   5.221e-05         25.0000        1                 
 507                 0.3500           0.3500         1.096e-05        
                   2.825e-04         25.0000        1                 
 508                 0.3500           0.3499         2.264e-05        
                   7.399e-05         25.0000        1                 
 509                 0.3499           0.3500         1.213e-05        
                   5.414e-05         25.0000        1                 
 510                 0.3499           0.3499         1.558e-05        
                   3.368e-05         25.0000        1                 
 511                 0.3499           0.3500         1.346e-05        
                   6.677e-05         25.0000        1                 
 512                 0.3500           0.3499         3.823e-05        
                   9.520e-05         25.0000        1                 
 513                 0.3500           0.3500         1.410e-05        
                   5.578e-05         25.0000        1                 
 514                 0.3500           0.3500         2.222e-05        
                   8.318e-05         25.0000        1                 
 515                 0.3500           0.3499         2.395e-05        
                   2.030e-04         25.0000        1                 
 516                 0.3500           0.3500         1.555e-05        
                   1.446e-04         25.0000        1                 
 517                 0.3500           0.3500         1.568e-05        
                   5.818e-05         25.0000        1                 
 518                 0.3500           0.3500         2.049e-05        
                   6.717e-05         25.0000        1                 
 519                 0.3499           0.3499         1.529e-05        
                   4.349e-05         25.0000        1                 
 520                 0.3499           0.3500         1.027e-05        
                   6.585e-05         25.0000        1                 
 521                 0.3499           0.3500         1.366e-05        
                   3.748e-05         25.0000        1                 
 522                 0.3500           0.3500         1.427e-05        
                   5.646e-05         25.0000        1                 
 523                 0.3499           0.3499         1.198e-05        
                   4.223e-05         25.0000        1                 
 524                 0.3500           0.3500         1.332e-05        
                   5.521e-05         25.0000        1                 
 525                 0.3499           0.3500         6.460e-06        
                   4.713e-05         25.0000        1                 
 526                 0.3500           0.3499         1.439e-05        
                   1.182e-04         25.0000        1                 
 527                 0.3500           0.3500         1.593e-05        
                   6.236e-05         25.0000        1                 
 528                 0.3500           0.3500         2.070e-05        
                   4.212e-05         25.0000        1                 
 529                 0.3500           0.3499         1.594e-05        
                   8.282e-05         25.0000        1                 
 530                 0.3500           0.3500         2.605e-05        
                   1.784e-04         25.0000        1                 
 531                 0.3500           0.3499         2.095e-05        
                   6.199e-05         25.0000        1                 
 532                 0.3499           0.3500         9.924e-06        
                   6.945e-05         25.0000        1                 
 533                 0.3500           0.3500         1.804e-05        
                   6.651e-05         25.0000        1                 
 534                 0.3499           0.3500         1.482e-05        
                   4.854e-05         25.0000        1                 
 535                 0.3500           0.3499         2.089e-05        
                   5.923e-05         25.0000        1                 
 536                 0.3500           0.3500         2.866e-05        
                   1.599e-04         25.0000        1                 
 537                 0.3500           0.3499         1.335e-05        
                   6.697e-05         25.0000        1                 
 538                 0.3500           0.3500         2.015e-05        
                   1.466e-04         25.0000        1                 
 539                 0.3500           0.3499         2.547e-05        
                   5.163e-04         25.0000        1                 
 540                 0.3500           0.3500         3.038e-05        
                   1.402e-04         25.0000        1                 
 541                 0.3500           0.3500         1.747e-05        
                   6.081e-05         25.0000        1                 
 542                 0.3499           0.3500         1.405e-05        
                   2.815e-05         25.0000        1                 
 543                 0.3499           0.3500         1.550e-05        
                   4.775e-05         25.0000        1                 
 544                 0.3500           0.3500         1.900e-05        
                   6.606e-05         25.0000        1                 
 545                 0.3500           0.3500         1.538e-05        
                   9.086e-05         25.0000        1                 
 546                 0.3499           0.3500         1.311e-05        
                   5.843e-05         25.0000        1                 
 547                 0.3500           0.3500         1.375e-05        
                   8.669e-05         25.0000        1                 
 548                 0.3500           0.3499         1.665e-05        
                   6.649e-05         25.0000        1                 
 549                 0.3500           0.3500         1.891e-05        
                   1.125e-04         25.0000        1                 
 550                 0.3499           0.3500         6.452e-06        
                   5.042e-05         25.0000        1                 
 551                 0.3500           0.3500         1.675e-05        
                   6.362e-05         25.0000        1                 
 552                 0.3500           0.3500         1.587e-05        
                   4.979e-05         25.0000        1                 
 553                 0.3499           0.3499         9.894e-06        
                   6.335e-05         25.0000        1                 
 554                 0.3500           0.3499         1.700e-05        
                   8.841e-05         25.0000        1                 
 555                 0.3499           0.3500         1.209e-05        
                   8.816e-05         25.0000        1                 
 556                 0.3499           0.3499         1.317e-05        
                   2.743e-05         25.0000        1                 
 557                 0.3500           0.3500         2.278e-05        
                   9.621e-05         25.0000        1                 
 558                 0.3500           0.3499         3.057e-05        
                   9.816e-05         25.0000        1                 
 559                 0.3499           0.3500         1.078e-05        
                   6.400e-05         25.0000        1                 
 560                 0.3500           0.3500         1.714e-05        
                   8.078e-05         25.0000        1                 
 561                 0.3500           0.3499         1.822e-05        
                   6.234e-05         25.0000        1                 
 562                 0.3500           0.3500         3.412e-05        
[...]
                   9.650e-05         25.0000        1                 
 19861               0.3500           0.3500         1.483e-05        
                   7.251e-05         25.0000        1                 
 19862               0.3500           0.3499         2.044e-05        
                   6.768e-05         25.0000        1                 
 19863               0.3498           0.3499         1.013e-05        
                   1.932e-05         25.0000        1                 
 19864               0.3499           0.3500         1.364e-05        
                   3.176e-05         25.0000        1                 
 19865               0.3499           0.3500         1.462e-05        
                   4.459e-05         25.0000        1                 
 19866               0.3500           0.3499         1.527e-05        
                   4.895e-05         25.0000        1                 
 19867               0.3499           0.3500         1.024e-05        
                   3.739e-05         25.0000        1                 
 19868               0.3500           0.3500         1.952e-05        
                   7.166e-05         25.0000        1                 
 19869               0.3499           0.3500         1.044e-05        
                   2.966e-05         25.0000        1                 
 19870               0.3500           0.3499         1.685e-05        
                   5.274e-05         25.0000        1                 
 19871               0.3499           0.3499         2.286e-05        
                   4.797e-05         25.0000        1                 
 19872               0.3500           0.3500         1.161e-05        
                   6.381e-05         25.0000        1                 
 19873               0.3499           0.3499         1.274e-05        
                   5.600e-05         25.0000        1                 
 19874               0.3500           0.3499         2.192e-05        
                   1.172e-04         25.0000        1                 
 19875               0.3500           0.3500         1.816e-05        
                   1.434e-04         25.0000        1                 
 19876               0.3500           0.3500         2.000e-05        
                   1.073e-04         25.0000        1                 
 19877               0.3500           0.3500         1.911e-05        
                   8.858e-05         25.0000        1                 
 19878               0.3500           0.3500         1.849e-05        
                   7.568e-05         25.0000        1                 
 19879               0.3500           0.3499         1.489e-05        
                   5.537e-05         25.0000        1                 
 19880               0.3500           0.3500         1.474e-05        
                   6.407e-05         25.0000        1                 
 19881               0.3500           0.3500         2.644e-05        
                   1.929e-04         25.0000        1                 
 19882               0.3499           0.3500         1.130e-05        
                   6.815e-05         25.0000        1                 
 19883               0.3500           0.3500         1.827e-05        
                   3.049e-04         25.0000        1                 
 19884               0.3500           0.3500         1.335e-05        
                   8.207e-05         25.0000        1                 
 19885               0.3500           0.3498         1.801e-05        
                   6.961e-05         25.0000        1                 
 19886               0.3500           0.3500         1.859e-05        
                   9.876e-05         25.0000        1                 
 19887               0.3499           0.3500         7.787e-06        
                   3.822e-05         25.0000        1                 
 19888               0.3500           0.3499         2.542e-05        
                   9.257e-05         25.0000        1                 
 19889               0.3500           0.3500         1.331e-05        
                   7.386e-05         25.0000        1                 
 19890               0.3500           0.3500         1.196e-05        
                   7.503e-05         25.0000        1                 
 19891               0.3500           0.3500         2.896e-05        
                   9.511e-05         25.0000        1                 
 19892               0.3500           0.3499         2.330e-05        
                   9.564e-05         25.0000        1                 
 19893               0.3500           0.3500         1.666e-05        
                   8.927e-05         25.0000        1                 
 19894               0.3500           0.3499         1.702e-05        
                   8.312e-05         25.0000        1                 
 19895               0.3499           0.3500         1.136e-05        
                   3.692e-05         25.0000        1                 
 19896               0.3500           0.3500         3.169e-05        
                   7.508e-05         25.0000        1                 
 19897               0.3499           0.3499         1.456e-05        
                   2.412e-05         25.0000        1                 
 19898               0.3499           0.3500         6.993e-06        
                   1.044e-04         25.0000        1                 
 19899               0.3500           0.3499         1.631e-05        
                   1.222e-04         25.0000        1                 
 19900               0.3499           0.3500         1.202e-05        
                   3.512e-05         25.0000        1                 
 19901               0.3500           0.3499         1.530e-05        
                   1.021e-04         25.0000        1                 
 19902               0.3500           0.3500         1.624e-05        
                   8.054e-05         25.0000        1                 
 19903               0.3500           0.3500         1.631e-05        
                   6.740e-05         25.0000        1                 
 19904               0.3499           0.3500         1.006e-05        
                   2.699e-05         25.0000        1                 
 19905               0.3499           0.3499         1.130e-05        
                   6.291e-05         25.0000        1                 
 19906               0.3500           0.3500         1.476e-05        
                   5.071e-05         25.0000        1                 
 19907               0.3500           0.3500         1.496e-05        
                   4.906e-05         25.0000        1                 
 19908               0.3500           0.3500         1.683e-05        
                   8.274e-05         25.0000        1                 
 19909               0.3499           0.3500         2.338e-05        
                   5.888e-05         25.0000        1                 
 19910               0.3500           0.3500         1.316e-05        
                   1.067e-04         25.0000        1                 
 19911               0.3500           0.3500         2.673e-05        
                   8.877e-05         25.0000        1                 
 19912               0.3500           0.3500         1.645e-05        
                   1.060e-04         25.0000        1                 
 19913               0.3500           0.3499         1.426e-05        
                   9.225e-05         25.0000        1                 
 19914               0.3499           0.3500         8.154e-06        
                   8.594e-05         25.0000        1                 
 19915               0.3500           0.3500         3.728e-05        
                   1.272e-04         25.0000        1                 
 19916               0.3500           0.3499         1.838e-05        
                   6.563e-05         25.0000        1                 
 19917               0.3499           0.3500         1.432e-05        
                   3.910e-05         25.0000        1                 
 19918               0.3499           0.3500         8.293e-06        
                   5.075e-05         25.0000        1                 
 19919               0.3500           0.3500         1.092e-05        
                   9.902e-05         25.0000        1                 
 19920               0.3500           0.3500         1.658e-05        
                   1.453e-04         25.0000        1                 
 19921               0.3499           0.3499         1.163e-05        
                   6.449e-05         25.0000        1                 
 19922               0.3500           0.3500         1.866e-05        
                   1.361e-04         25.0000        1                 
 19923               0.3499           0.3499         1.137e-05        
                   2.382e-05         25.0000        1                 
 19924               0.3499           0.3499         1.207e-05        
                   3.111e-05         25.0000        1                 
 19925               0.3499           0.3499         1.495e-05        
                   2.615e-05         25.0000        1                 
 19926               0.3499           0.3500         1.045e-05        
                   3.461e-05         25.0000        1                 
 19927               0.3499           0.3499         1.363e-05        
                   4.217e-05         25.0000        1                 
 19928               0.3500           0.3500         1.869e-05        
                   1.397e-04         25.0000        1                 
 19929               0.3500           0.3499         1.817e-05        
                   1.029e-04         25.0000        1                 
 19930               0.3499           0.3500         7.063e-06        
                   5.512e-05         25.0000        1                 
 19931               0.3499           0.3499         8.952e-06        
                   4.407e-05         25.0000        1                 
 19932               0.3500           0.3499         2.825e-05        
                   1.009e-04         25.0000        1                 
 19933               0.3500           0.3500         1.944e-05        
                   8.954e-05         25.0000        1                 
 19934               0.3500           0.3500         2.436e-05        
                   2.120e-04         25.0000        1                 
 19935               0.3499           0.3500         1.217e-05        
                   4.688e-05         25.0000        1                 
 19936               0.3500           0.3500         1.757e-05        
                   5.361e-05         25.0000        1                 
 19937               0.3500           0.3500         1.300e-05        
                   6.886e-05         25.0000        1                 
 19938               0.3500           0.3499         2.129e-05        
                   9.288e-05         25.0000        1                 
 19939               0.3500           0.3500         2.439e-05        
                   1.707e-04         25.0000        1                 
 19940               0.3500           0.3500         2.036e-05        
                   4.455e-05         25.0000        1                 
 19941               0.3500           0.3500         1.787e-05        
                   9.369e-05         25.0000        1                 
 19942               0.3500           0.3500         2.749e-05        
                   7.370e-05         25.0000        1                 
 19943               0.3499           0.3500         1.238e-05        
                   5.029e-05         25.0000        1                 
 19944               0.3499           0.3499         1.602e-05        
                   5.520e-05         25.0000        1                 
 19945               0.3499           0.3500         1.561e-05        
                   4.863e-05         25.0000        1                 
 19946               0.3500           0.3500         2.141e-05        
                   7.236e-05         25.0000        1                 
 19947               0.3500           0.3500         2.046e-05        
                   8.321e-05         25.0000        1                 
 19948               0.3499           0.3500         5.874e-06        
                   1.212e-04         25.0000        1                 
 19949               0.3499           0.3500         1.031e-05        
                   3.741e-05         25.0000        1                 
 19950               0.3500           0.3499         1.712e-05        
                   1.487e-04         25.0000        1                 
 19951               0.3499           0.3500         1.373e-05        
                   4.471e-05         25.0000        1                 
 19952               0.3500           0.3499         1.444e-05        
                   5.687e-05         25.0000        1                 
 19953               0.3499           0.3500         9.493e-06        
                   2.739e-05         25.0000        1                 
 19954               0.3500           0.3500         2.105e-05        
                   6.071e-05         25.0000        1                 
 19955               0.3500           0.3499         1.339e-05        
                   1.121e-04         25.0000        1                 
 19956               0.3500           0.3499         1.563e-05        
                   1.223e-04         25.0000        1                 
 19957               0.3500           0.3500         1.427e-05        
                   1.533e-04         25.0000        1                 
 19958               0.3499           0.3500         8.261e-06        
                   5.188e-05         25.0000        1                 
 19959               0.3499           0.3500         9.905e-06        
                   2.496e-05         25.0000        1                 
 19960               0.3500           0.3500         2.152e-05        
                   8.780e-05         25.0000        1                 
 19961               0.3500           0.3500         1.354e-05        
                   6.620e-05         25.0000        1                 
 19962               0.3500           0.3500         1.761e-05        
                   8.569e-05         25.0000        1                 
 19963               0.3500           0.3500         1.661e-05        
                   1.599e-04         25.0000        1                 
 19964               0.3499           0.3500         1.028e-05        
                   4.919e-05         25.0000        1                 
 19965               0.3500           0.3500         2.347e-05        
                   6.806e-05         25.0000        1                 
 19966               0.3499           0.3500         9.306e-06        
                   4.523e-05         25.0000        1                 
 19967               0.3500           0.3500         1.867e-05        
                   2.097e-04         25.0000        1                 
 19968               0.3499           0.3499         1.066e-05        
                   7.086e-05         25.0000        1                 
 19969               0.3499           0.3499         1.043e-05        
                   3.532e-05         25.0000        1                 
 19970               0.3500           0.3500         1.931e-05        
                   8.877e-05         25.0000        1                 
 19971               0.3500           0.3499         1.697e-05        
                   5.909e-05         25.0000        1                 
 19972               0.3500           0.3500         1.663e-05        
                   9.481e-05         25.0000        1                 
 19973               0.3500           0.3500         2.488e-05        
                   9.550e-05         25.0000        1                 
 19974               0.3499           0.3499         7.250e-06        
                   4.159e-05         25.0000        1                 
 19975               0.3500           0.3500         4.386e-05        
                   1.119e-04         25.0000        1                 
 19976               0.3500           0.3500         2.239e-05        
                   5.919e-05         25.0000        1                 
 19977               0.3500           0.3500         1.323e-05        
                   7.031e-05         25.0000        1                 
 19978               0.3500           0.3499         1.355e-05        
                   8.485e-05         25.0000        1                 
 19979               0.3500           0.3500         1.728e-05        
                   5.624e-05         25.0000        1                 
 19980               0.3499           0.3500         8.516e-06        
                   3.394e-05         25.0000        1                 
 19981               0.3500           0.3499         2.056e-05        
                   7.083e-05         25.0000        1                 
 19982               0.3500           0.3500         1.110e-05        
                   1.195e-04         25.0000        1                 
 19983               0.3500           0.3499         1.565e-05        
                   9.595e-05         25.0000        1                 
 19984               0.3500           0.3500         1.675e-05        
                   6.272e-05         25.0000        1                 
 19985               0.3499           0.3500         1.908e-05        
                   4.334e-05         25.0000        1                 
 19986               0.3500           0.3500         2.160e-05        
                   5.845e-05         25.0000        1                 
 19987               0.3499           0.3500         9.546e-06        
                   4.432e-05         25.0000        1                 
 19988               0.3500           0.3500         1.636e-05        
                   1.655e-04         25.0000        1                 
 19989               0.3500           0.3500         1.927e-05        
                   6.623e-05         25.0000        1                 
 19990               0.3500           0.3500         2.305e-05        
                   1.249e-04         25.0000        1                 
 19991               0.3500           0.3500         3.289e-05        
                   2.158e-04         25.0000        1                 
 19992               0.3500           0.3500         1.649e-05        
                   4.809e-05         25.0000        1                 
 19993               0.3500           0.3499         2.330e-05        
                   5.998e-05         25.0000        1                 
 19994               0.3499           0.3500         1.458e-05        
                   3.492e-05         25.0000        1                 
 19995               0.3500           0.3499         1.830e-05        
                   7.297e-05         25.0000        1                 
 19996               0.3499           0.3500         1.816e-05        
                   5.102e-05         25.0000        1                 
 19997               0.3500           0.3500         1.110e-05        
                   1.136e-04         25.0000        1                 
 19998               0.3499           0.3499         1.271e-05        
                   2.632e-05         25.0000        1                 
 19999               0.3499           0.3500         1.028e-05        
                   2.764e-05         25.0000        1                 
 20000               0.3500           0.3500         2.925e-05        
                   1.189e-04         25.0000        1                 
