$DATA1 SOURCE='HSPICE' VERSION='F-2011.09 64-BIT'
.TITLE '* include model and subckts'
 index            delay_write1     delay_read1      delay_write0      
                  delay_read0      temper           alter#            
 1                 1.182e-09        6.002e-10        5.812e-10        
                   6.449e-10         25.0000        1                 
 2                 8.498e-10        5.657e-10        4.621e-10        
                   4.316e-10         25.0000        1                 
 3                 2.122e-09        5.558e-10        1.081e-09        
                   1.086e-09         25.0000        1                 
 4                 2.991e-09        9.990e-10        1.188e-09        
                   1.925e-09         25.0000        1                 
 5                 7.139e-10        4.714e-10        4.306e-10        
                   3.691e-10         25.0000        1                 
 6                 1.500e-09        7.665e-10        6.610e-10        
                   8.909e-10         25.0000        1                 
 7                 7.587e-10        5.351e-10        4.364e-10        
                   4.085e-10         25.0000        1                 
 8                 1.482e-09        1.289e-09        5.728e-10        
                   8.262e-10         25.0000        1                 
 9                 1.423e-09        1.078e-09        5.822e-10        
                   8.125e-10         25.0000        1                 
 10                1.799e-09        6.381e-10        8.359e-10        
                   9.809e-10         25.0000        1                 
 11                8.923e-10        8.574e-10        4.343e-10        
                   4.391e-10         25.0000        1                 
 12                1.220e-09        4.529e-10        6.609e-10        
                   6.020e-10         25.0000        1                 
 13                1.110e-09        6.929e-10        5.336e-10        
                   5.921e-10         25.0000        1                 
 14                7.392e-10        4.421e-10        4.481e-10        
                   3.918e-10         25.0000        1                 
 15                1.107e-09        9.702e-10        4.923e-10        
                   5.923e-10         25.0000        1                 
 16                1.342e-09        5.921e-10        6.505e-10        
                   6.703e-10         25.0000        1                 
 17                1.335e-09        7.449e-10        6.052e-10        
                   7.565e-10         25.0000        1                 
 18                8.585e-10        6.060e-10        4.608e-10        
                   4.731e-10         25.0000        1                 
 19                1.020e-09        6.559e-10        5.098e-10        
                   5.901e-10         25.0000        1                 
 20                1.312e-09        8.169e-10        5.834e-10        
                   7.036e-10         25.0000        1                 
 21                9.405e-10        7.389e-10        4.673e-10        
                   4.955e-10         25.0000        1                 
 22                1.239e-09        7.224e-10        5.749e-10        
                   6.862e-10         25.0000        1                 
 23                2.466e-09        7.287e-10        1.111e-09        
                   1.367e-09         25.0000        1                 
 24                8.493e-10        6.628e-10        4.487e-10        
                   4.606e-10         25.0000        1                 
 25                1.222e-09        5.282e-10        6.218e-10        
                   6.271e-10         25.0000        1                 
 26                1.092e-09        7.534e-10        5.167e-10        
                   5.718e-10         25.0000        1                 
 27                1.901e-09        6.082e-10        9.048e-10        
                   1.024e-09         25.0000        1                 
 28                6.335e-10        5.591e-10        3.688e-10        
                   3.041e-10         25.0000        1                 
 29                1.111e-09        5.423e-10        5.693e-10        
                   5.739e-10         25.0000        1                 
 30                6.061e-10        4.485e-10        3.840e-10        
                   2.974e-10         25.0000        1                 
 31                8.854e-10        5.728e-10        4.748e-10        
                   4.628e-10         25.0000        1                 
 32                1.377e-09        9.572e-10        5.831e-10        
                   7.402e-10         25.0000        1                 
 33                1.075e-09        8.056e-10        5.040e-10        
                   5.918e-10         25.0000        1                 
 34                2.509e-09        9.268e-10        1.016e-09        
                   1.536e-09         25.0000        1                 
 35                8.448e-10        5.679e-10        4.618e-10        
                   4.563e-10         25.0000        1                 
 36                8.933e-10        7.203e-10        4.518e-10        
                   4.421e-10         25.0000        1                 
 37                1.133e-09        6.851e-10        5.440e-10        
                   6.254e-10         25.0000        1                 
 38                9.968e-10        1.070e-09        4.437e-10        
                   4.854e-10         25.0000        1                 
 39                1.024e-09        7.236e-10        4.969e-10        
                   5.148e-10         25.0000        1                 
 40                2.186e-09        7.985e-10        9.285e-10        
                   1.323e-09         25.0000        1                 
 41                1.318e-09        1.436e-09        5.069e-10        
                   6.723e-10         25.0000        1                 
 42                1.320e-09        8.085e-10        5.879e-10        
                   7.399e-10         25.0000        1                 
 43                1.045e-09        6.818e-10        5.124e-10        
                   5.487e-10         25.0000        1                 
 44                7.215e-10        6.558e-10        3.988e-10        
                   3.826e-10         25.0000        1                 
 45                1.385e-09        8.385e-10        6.047e-10        
                   8.375e-10         25.0000        1                 
 46                1.090e-09        5.721e-10        5.528e-10        
                   5.886e-10         25.0000        1                 
 47                1.244e-09        7.147e-10        5.782e-10        
                   6.940e-10         25.0000        1                 
 48                9.610e-10        5.056e-10        5.200e-10        
                   5.261e-10         25.0000        1                 
 49                1.136e-09        9.781e-10        5.017e-10        
                   6.352e-10         25.0000        1                 
 50                9.049e-10        6.075e-10        4.749e-10        
                   4.640e-10         25.0000        1                 
 51                9.680e-10        4.902e-10        5.270e-10        
                   5.119e-10         25.0000        1                 
 52                1.225e-09        7.883e-10        5.577e-10        
                   6.589e-10         25.0000        1                 
 53                1.501e-09        9.116e-10        6.315e-10        
                   9.396e-10         25.0000        1                 
 54                1.304e-09        6.504e-10        6.154e-10        
                   7.298e-10         25.0000        1                 
 55                7.952e-10        6.206e-10        4.346e-10        
                   4.168e-10         25.0000        1                 
 56                1.458e-09        7.183e-10        6.597e-10        
                   7.724e-10         25.0000        1                 
 57                7.652e-10        6.678e-10        4.101e-10        
                   3.586e-10         25.0000        1                 
 58                1.157e-09        7.805e-10        5.357e-10        
                   6.561e-10         25.0000        1                 
 59                1.669e-09        1.390e-09        6.220e-10        
                   9.592e-10         25.0000        1                 
 60                9.335e-10        7.179e-10        4.673e-10        
                   4.808e-10         25.0000        1                 
 61                1.658e-09        7.847e-10        7.170e-10        
                   9.858e-10         25.0000        1                 
 62                9.141e-10        7.251e-10        4.589e-10        
                   4.540e-10         25.0000        1                 
 63                1.079e-09        9.039e-10        4.916e-10        
                   5.760e-10         25.0000        1                 
 64                6.993e-10        5.225e-10        4.111e-10        
                   3.401e-10         25.0000        1                 
 65                1.298e-09        9.196e-10        5.622e-10        
                   7.506e-10         25.0000        1                 
 66                1.035e-09        9.025e-10        4.769e-10        
                   5.365e-10         25.0000        1                 
 67                8.794e-10        5.391e-10        4.755e-10        
                   4.132e-10         25.0000        1                 
 68                1.435e-09        1.089e-09        5.846e-10        
                   8.353e-10         25.0000        1                 
 69                9.928e-10        6.445e-10        5.011e-10        
                   5.381e-10         25.0000        1                 
 70                1.780e-09        7.236e-10        7.843e-10        
                   1.050e-09         25.0000        1                 
 71                1.760e-09        1.135e-09        6.845e-10        
                   1.089e-09         25.0000        1                 
 72                1.858e-09        7.691e-10        8.048e-10        
                   1.065e-09         25.0000        1                 
 73                1.385e-09        1.067e-09        5.701e-10        
                   7.432e-10         25.0000        1                 
 74                2.050e-09        8.938e-10        8.389e-10        
                   1.258e-09         25.0000        1                 
 75                1.020e-09        7.098e-10        4.988e-10        
                   5.394e-10         25.0000        1                 
 76                1.032e-09        1.256e-09        4.384e-10        
                   5.231e-10         25.0000        1                 
 77                1.738e-09        9.436e-10        7.099e-10        
                   1.065e-09         25.0000        1                 
 78                1.314e-09        4.924e-10        6.834e-10        
                   6.584e-10         25.0000        1                 
 79                7.995e-10        6.267e-10        4.350e-10        
                   4.172e-10         25.0000        1                 
 80                1.031e-09        6.633e-10        5.114e-10        
                   5.655e-10         25.0000        1                 
 81                1.540e-09        9.207e-10        6.463e-10        
                   8.607e-10         25.0000        1                 
 82                1.662e-09        7.348e-10        7.361e-10        
                   9.174e-10         25.0000        1                 
 83                1.776e-09        1.171e-09        6.848e-10        
                   1.089e-09         25.0000        1                 
 84                1.241e-09        8.570e-10        5.525e-10        
                   7.233e-10         25.0000        1                 
 85                1.649e-09        9.163e-10        6.847e-10        
                   9.693e-10         25.0000        1                 
 86                1.494e-09        1.150e-09        5.951e-10        
                   8.763e-10         25.0000        1                 
 87                8.560e-10        5.723e-10        4.649e-10        
                   4.586e-10         25.0000        1                 
 88                1.421e-09        1.102e-09        5.775e-10        
                   8.236e-10         25.0000        1                 
 89                1.788e-09        9.882e-10        7.206e-10        
                   1.065e-09         25.0000        1                 
 90                7.985e-10        7.381e-10        4.181e-10        
                   4.131e-10         25.0000        1                 
 91                1.089e-09        6.556e-10        5.336e-10        
                   6.019e-10         25.0000        1                 
 92                1.177e-09        5.095e-10        6.092e-10        
                   6.125e-10         25.0000        1                 
 93                2.442e-09        8.106e-10        1.033e-09        
                   1.504e-09         25.0000        1                 
 94                1.072e-09        5.726e-10        5.450e-10        
                   5.655e-10         25.0000        1                 
 95                1.055e-09        5.507e-10        5.436e-10        
                   5.279e-10         25.0000        1                 
 96                1.007e-09        5.525e-10        5.242e-10        
                   5.050e-10         25.0000        1                 
 97                1.087e-09        1.072e-09        4.737e-10        
                   5.660e-10         25.0000        1                 
 98                1.106e-09        6.987e-10        5.316e-10        
                   6.150e-10         25.0000        1                 
 99                2.162e-09        6.747e-10        9.884e-10        
                   1.216e-09         25.0000        1                 
 100               1.851e-09        1.848e-09        6.344e-10        
                   1.155e-09         25.0000        1                 
 101               7.031e-10        4.436e-10        4.355e-10        
                   3.940e-10         25.0000        1                 
 102               1.220e-09        7.544e-10        5.621e-10        
                   6.678e-10         25.0000        1                 
 103               1.100e-09        7.040e-10        5.279e-10        
                   5.898e-10         25.0000        1                 
 104               1.092e-09        8.061e-10        5.096e-10        
                   6.071e-10         25.0000        1                 
 105               1.977e-09        5.803e-10        9.725e-10        
                   1.019e-09         25.0000        1                 
 106               1.345e-09        7.757e-10        6.031e-10        
                   7.402e-10         25.0000        1                 
 107               1.255e-09        9.000e-10        5.512e-10        
                   7.422e-10         25.0000        1                 
 108               9.033e-10        4.249e-10        5.202e-10        
                   4.388e-10         25.0000        1                 
 109               1.158e-09        9.741e-10        5.099e-10        
                   6.731e-10         25.0000        1                 
 110               2.175e-09        8.581e-10        9.067e-10        
                   1.270e-09         25.0000        1                 
 111               1.154e-09        5.663e-10        5.798e-10        
                   6.401e-10         25.0000        1                 
 112               1.533e-09        5.706e-10        7.443e-10        
                   8.365e-10         25.0000        1                 
 113               1.190e-09        8.904e-10        5.310e-10        
                   6.920e-10         25.0000        1                 
 114               1.277e-09        9.088e-10        5.570e-10        
                   7.443e-10         25.0000        1                 
 115               1.081e-09        6.810e-10        5.263e-10        
                   6.061e-10         25.0000        1                 
 116               1.290e-09        6.697e-10        6.051e-10        
                   7.328e-10         25.0000        1                 
 117               1.350e-09        1.308e-09        5.293e-10        
                   7.228e-10         25.0000        1                 
 118               7.128e-10        5.987e-10        4.018e-10        
                   3.509e-10         25.0000        1                 
 119               1.427e-09        5.861e-10        6.871e-10        
                   8.084e-10         25.0000        1                 
 120               1.362e-09        6.686e-10        6.342e-10        
                   7.454e-10         25.0000        1                 
 121               8.697e-10        5.493e-10        4.716e-10        
                   4.284e-10         25.0000        1                 
 122               1.275e-09        1.259e-09        5.128e-10        
                   6.947e-10         25.0000        1                 
 123               9.144e-10        6.621e-10        4.689e-10        
                   4.648e-10         25.0000        1                 
 124               2.372e-09        9.375e-10        9.552e-10        
                   1.466e-09         25.0000        1                 
 125               8.677e-10        7.005e-10        4.489e-10        
                   4.655e-10         25.0000        1                 
 126               1.042e-09        5.384e-10        5.415e-10        
                   5.298e-10         25.0000        1                 
 127               5.443e-10        4.008e-10        3.543e-10        
                   2.134e-10         25.0000        1                 
 128               1.513e-09        6.995e-10        6.859e-10        
                   8.160e-10         25.0000        1                 
 129               2.702e-09        8.380e-10        1.155e-09        
                   1.569e-09         25.0000        1                 
 130               8.713e-10        7.343e-10        4.440e-10        
                   4.500e-10         25.0000        1                 
 131               1.281e-09        7.024e-10        5.942e-10        
                   7.555e-10         25.0000        1                 
 132               1.184e-09        8.401e-10        5.361e-10        
                   6.605e-10         25.0000        1                 
 133               1.364e-09        7.118e-10        6.234e-10        
                   7.768e-10         25.0000        1                 
 134               2.467e-09        1.027e-09        9.687e-10        
                   1.507e-09         25.0000        1                 
 135               8.442e-10        5.210e-10        4.696e-10        
                   4.365e-10         25.0000        1                 
 136               1.456e-09        9.786e-10        6.066e-10        
                   8.390e-10         25.0000        1                 
 137               2.253e-09        9.477e-10        9.058e-10        
                   1.368e-09         25.0000        1                 
 138               2.395e-09        7.069e-10        1.082e-09        
                   1.382e-09         25.0000        1                 
 139               8.552e-10        6.235e-10        4.564e-10        
                   4.635e-10         25.0000        1                 
 140               1.705e-09        7.088e-10        7.590e-10        
                   1.002e-09         25.0000        1                 
 141               9.707e-10        5.318e-10        5.155e-10        
                   5.060e-10         25.0000        1                 
 142               9.543e-10        8.783e-10        4.527e-10        
                   4.849e-10         25.0000        1                 
 143               2.872e-09        9.365e-10        1.164e-09        
                   1.844e-09         25.0000        1                 
 144               1.468e-09        9.434e-10        6.162e-10        
                   8.678e-10         25.0000        1                 
 145               2.162e-09        9.038e-10        8.839e-10        
                   1.284e-09         25.0000        1                 
 146               1.041e-09        6.434e-10        5.188e-10        
                   5.779e-10         25.0000        1                 
 147               6.129e-10        4.540e-10        3.825e-10        
                   2.751e-10         25.0000        1                 
 148               8.556e-10        4.480e-10        4.912e-10        
                   4.195e-10         25.0000        1                 
 149               1.654e-09        1.432e-09        6.125e-10        
                   9.812e-10         25.0000        1                 
 150               1.429e-09        5.261e-10        7.202e-10        
                   7.452e-10         25.0000        1                 
 151               1.113e-09        6.024e-10        5.535e-10        
                   5.765e-10         25.0000        1                 
 152               1.775e-09        6.098e-10        8.388e-10        
                   9.886e-10         25.0000        1                 
 153               9.405e-10        5.274e-10        5.053e-10        
                   4.929e-10         25.0000        1                 
 154               2.216e-09        1.801e-09        7.502e-10        
                   1.470e-09         25.0000        1                 
 155               8.509e-10        7.567e-10        4.369e-10        
                   4.628e-10         25.0000        1                 
 156               9.864e-10        5.388e-10        5.204e-10        
                   5.181e-10         25.0000        1                 
 157               7.428e-10        5.985e-10        4.171e-10        
                   3.813e-10         25.0000        1                 
 158               1.245e-09        7.917e-10        5.645e-10        
                   7.029e-10         25.0000        1                 
 159               1.762e-09        7.875e-10        7.589e-10        
                   1.009e-09         25.0000        1                 
 160               1.264e-09        7.088e-10        5.869e-10        
                   6.647e-10         25.0000        1                 
 161               1.484e-09        8.585e-10        6.357e-10        
                   9.068e-10         25.0000        1                 
 162               7.139e-10        5.415e-10        4.153e-10        
                   3.641e-10         25.0000        1                 
 163               1.108e-09        7.960e-10        5.159e-10        
                   5.889e-10         25.0000        1                 
 164               9.763e-10        7.432e-10        4.795e-10        
                   5.270e-10         25.0000        1                 
 165               8.630e-10        5.052e-10        4.799e-10        
                   4.412e-10         25.0000        1                 
 166               9.962e-10        1.028e-09        4.513e-10        
                   5.253e-10         25.0000        1                 
 167               1.366e-09        7.865e-10        6.084e-10        
                   7.846e-10         25.0000        1                 
 168               7.055e-10        4.910e-10        4.216e-10        
                   3.554e-10         25.0000        1                 
 169               1.156e-09        9.472e-10        5.122e-10        
                   6.460e-10         25.0000        1                 
 170               1.661e-09        5.541e-10        8.191e-10        
                   8.940e-10         25.0000        1                 
 171               7.286e-10        4.518e-10        4.383e-10        
                   3.545e-10         25.0000        1                 
 172               1.039e-09        8.718e-10        4.829e-10        
                   5.600e-10         25.0000        1                 
 173               8.284e-10        7.461e-10        4.268e-10        
                   4.122e-10         25.0000        1                 
 174               1.770e-09        1.602e-09        6.323e-10        
                   1.024e-09         25.0000        1                 
 175               8.352e-10        6.134e-10        4.506e-10        
                   4.443e-10         25.0000        1                 
 176               1.292e-09        6.729e-10        6.054e-10        
                   7.125e-10         25.0000        1                 
 177               1.709e-09        1.395e-09        6.347e-10        
                   1.034e-09         25.0000        1                 
 178               9.341e-10        9.279e-10        4.412e-10        
                   4.816e-10         25.0000        1                 
 179               1.614e-09        8.414e-10        6.896e-10        
                   8.795e-10         25.0000        1                 
 180               1.589e-09        1.405e-09        5.960e-10        
                   9.500e-10         25.0000        1                 
 181               1.143e-09        8.403e-10        5.224e-10        
                   6.578e-10         25.0000        1                 
 182               2.219e-09        8.247e-10        9.440e-10        
                   1.218e-09         25.0000        1                 
 183               9.896e-10        8.382e-10        4.721e-10        
                   5.499e-10         25.0000        1                 
 184               1.141e-09        8.303e-10        5.241e-10        
                   6.851e-10         25.0000        1                 
 185               1.456e-09        9.787e-10        6.071e-10        
                   8.436e-10         25.0000        1                 
 186               1.734e-09        1.021e-09        6.947e-10        
                   1.053e-09         25.0000        1                 
 187               1.240e-09        5.175e-10        6.343e-10        
                   6.536e-10         25.0000        1                 
 188               1.298e-09        5.219e-10        6.603e-10        
                   6.657e-10         25.0000        1                 
 189               1.069e-09        5.770e-10        5.431e-10        
                   5.777e-10         25.0000        1                 
 190               1.753e-09        1.569e-09        6.313e-10        
                   1.017e-09         25.0000        1                 
 191               1.215e-09        7.110e-10        5.687e-10        
                   6.851e-10         25.0000        1                 
 192               1.826e-09        1.103e-09        7.123e-10        
                   1.130e-09         25.0000        1                 
 193               1.761e-09        1.001e-09        7.074e-10        
                   1.079e-09         25.0000        1                 
 194               8.198e-10        6.499e-10        4.365e-10        
                   4.088e-10         25.0000        1                 
 195               9.771e-10        5.527e-10        5.069e-10        
                   4.170e-10         25.0000        1                 
 196               1.776e-09        1.620e-09        6.319e-10        
                   1.107e-09         25.0000        1                 
 197               1.192e-09        9.210e-10        5.263e-10        
                   6.457e-10         25.0000        1                 
 198               1.071e-09        5.231e-10        5.587e-10        
                   5.731e-10         25.0000        1                 
 199               9.633e-10        1.045e-09        4.365e-10        
                   4.722e-10         25.0000        1                 
 200               1.333e-09        6.017e-10        6.410e-10        
                   7.734e-10         25.0000        1                 
 201               7.831e-10        5.544e-10        4.421e-10        
                   4.239e-10         25.0000        1                 
 202               1.657e-09        8.292e-10        7.065e-10        
                   9.625e-10         25.0000        1                 
 203               1.217e-09        9.852e-10        5.264e-10        
                   6.735e-10         25.0000        1                 
 204               1.272e-09        1.175e-09        5.180e-10        
                   6.533e-10         25.0000        1                 
 205               7.537e-10        5.073e-10        4.411e-10        
                   4.232e-10         25.0000        1                 
 206               1.436e-09        7.682e-10        6.385e-10        
                   7.889e-10         25.0000        1                 
 207               1.156e-09        9.884e-10        5.057e-10        
                   6.190e-10         25.0000        1                 
 208               1.049e-09        6.185e-10        5.256e-10        
                   5.429e-10         25.0000        1                 
 209               8.027e-10        6.622e-10        4.325e-10        
                   4.328e-10         25.0000        1                 
 210               1.298e-09        7.798e-10        5.847e-10        
                   7.810e-10         25.0000        1                 
 211               1.237e-09        1.413e-09        4.876e-10        
                   6.939e-10         25.0000        1                 
 212               6.146e-10        4.930e-10        3.769e-10        
                   3.079e-10         25.0000        1                 
 213               1.336e-09        7.239e-10        6.105e-10        
                   6.936e-10         25.0000        1                 
 214               2.065e-09        1.276e-09        7.649e-10        
                   1.316e-09         25.0000        1                 
 215               1.375e-09        8.350e-10        6.028e-10        
                   7.395e-10         25.0000        1                 
 216               1.033e-09        1.051e-09        4.600e-10        
                   5.392e-10         25.0000        1                 
 217               8.277e-10        6.950e-10        4.375e-10        
                   4.520e-10         25.0000        1                 
 218               8.306e-10        6.324e-10        4.459e-10        
                   4.454e-10         25.0000        1                 
 219               1.383e-09        6.265e-10        6.558e-10        
                   7.360e-10         25.0000        1                 
 220               1.094e-09        7.901e-10        5.126e-10        
                   5.950e-10         25.0000        1                 
 221               8.531e-10        5.436e-10        4.652e-10        
                   4.059e-10         25.0000        1                 
 222               1.116e-09        8.196e-10        5.155e-10        
                   6.114e-10         25.0000        1                 
 223               1.088e-09        7.618e-10        5.155e-10        
                   6.171e-10         25.0000        1                 
 224               1.587e-09        7.520e-10        6.987e-10        
                   9.173e-10         25.0000        1                 
 225               1.048e-09        4.949e-10        5.584e-10        
                   5.435e-10         25.0000        1                 
 226               1.726e-09        7.885e-10        7.439e-10        
                   9.880e-10         25.0000        1                 
 227               8.446e-10        4.378e-10        4.898e-10        
                   4.150e-10         25.0000        1                 
 228               1.042e-09        8.379e-10        4.874e-10        
                   5.433e-10         25.0000        1                 
 229               1.091e-09        6.589e-10        5.343e-10        
                   6.289e-10         25.0000        1                 
 230               1.063e-09        5.706e-10        5.423e-10        
                   5.724e-10         25.0000        1                 
 231               1.785e-09        7.148e-10        7.968e-10        
                   9.617e-10         25.0000        1                 
 232               2.084e-09        6.702e-10        9.542e-10        
                   1.173e-09         25.0000        1                 
 233               8.792e-10        8.500e-10        4.339e-10        
                   4.711e-10         25.0000        1                 
 234               9.445e-10        9.186e-10        4.478e-10        
                   5.182e-10         25.0000        1                 
 235               1.867e-09        6.449e-10        8.636e-10        
                   1.043e-09         25.0000        1                 
 236               8.195e-10        5.769e-10        4.513e-10        
                   4.424e-10         25.0000        1                 
 237               1.253e-09        7.265e-10        5.790e-10        
                   7.092e-10         25.0000        1                 
 238               1.339e-09        6.795e-10        6.216e-10        
                   7.553e-10         25.0000        1                 
 239               1.330e-09        7.279e-10        6.072e-10        
                   7.586e-10         25.0000        1                 
 240               1.626e-09        9.527e-10        6.686e-10        
                   9.988e-10         25.0000        1                 
 241               1.912e-09        1.496e-09        6.897e-10        
                   1.109e-09         25.0000        1                 
 242               1.226e-09        7.408e-10        5.667e-10        
                   6.943e-10         25.0000        1                 
 243               1.315e-09        5.147e-10        6.711e-10        
                   6.867e-10         25.0000        1                 
 244               2.139e-09        9.515e-10        8.654e-10        
                   1.226e-09         25.0000        1                 
 245               1.244e-09        5.552e-10        6.206e-10        
                   6.827e-10         25.0000        1                 
 246               1.508e-09        9.440e-10        6.297e-10        
                   8.941e-10         25.0000        1                 
 247               1.116e-09        7.427e-10        5.272e-10        
                   6.040e-10         25.0000        1                 
 248               1.555e-09        8.296e-10        6.688e-10        
                   8.792e-10         25.0000        1                 
 249               8.674e-10        6.069e-10        4.633e-10        
                   4.713e-10         25.0000        1                 
 250               1.770e-09        9.165e-10        7.263e-10        
                   1.106e-09         25.0000        1                 
 251               8.039e-10        5.406e-10        4.512e-10        
                   4.226e-10         25.0000        1                 
 252               1.003e-09        7.445e-10        4.880e-10        
                   5.301e-10         25.0000        1                 
 253               7.921e-10        7.505e-10        4.121e-10        
                   4.014e-10         25.0000        1                 
 254               1.091e-09        6.771e-10        5.303e-10        
                   5.955e-10         25.0000        1                 
 255               1.090e-09        6.590e-10        5.334e-10        
                   5.937e-10         25.0000        1                 
 256               2.551e-09        1.102e-09        9.765e-10        
                   1.620e-09         25.0000        1                 
 257               7.812e-10        6.313e-10        4.239e-10        
                   3.769e-10         25.0000        1                 
 258               1.596e-09        1.099e-09        6.349e-10        
                   1.001e-09         25.0000        1                 
 259               1.532e-09        1.621e-09        5.576e-10        
                   8.641e-10         25.0000        1                 
 260               1.426e-09        8.065e-10        6.268e-10        
                   7.580e-10         25.0000        1                 
 261               8.215e-10        5.759e-10        4.521e-10        
                   4.446e-10         25.0000        1                 
 262               1.672e-09        6.227e-10        7.853e-10        
                   8.912e-10         25.0000        1                 
 263               1.100e-09        4.943e-10        5.803e-10        
                   5.392e-10         25.0000        1                 
 264               1.390e-09        9.031e-10        5.959e-10        
                   7.915e-10         25.0000        1                 
 265               3.083e-09        8.341e-10        1.336e-09        
                   1.879e-09         25.0000        1                 
 266               2.167e-09        9.636e-10        8.689e-10        
                   1.297e-09         25.0000        1                 
 267               9.811e-10        6.671e-10        4.931e-10        
                   5.363e-10         25.0000        1                 
 268               1.441e-09        8.901e-10        6.156e-10        
                   8.627e-10         25.0000        1                 
 269               7.129e-10        6.402e-10        3.944e-10        
                   3.543e-10         25.0000        1                 
 270               1.074e-09        9.209e-10        4.883e-10        
                   5.852e-10         25.0000        1                 
 271               1.091e-09        9.597e-10        4.888e-10        
                   5.829e-10         25.0000        1                 
 272               3.255e-09        1.133e-09        1.248e-09        
                   2.114e-09         25.0000        1                 
 273               8.420e-10        6.571e-10        4.454e-10        
                   4.421e-10         25.0000        1                 
 274               1.586e-09        6.873e-10        7.188e-10        
                   8.846e-10         25.0000        1                 
 275               8.542e-10        7.224e-10        4.397e-10        
                   4.361e-10         25.0000        1                 
 276               1.704e-09        9.521e-10        6.969e-10        
                   1.026e-09         25.0000        1                 
 277               1.873e-09        1.037e-09        7.381e-10        
                   1.201e-09         25.0000        1                 
 278               1.725e-09        1.297e-09        6.507e-10        
                   1.038e-09         25.0000        1                 
 279               1.012e-09        8.865e-10        4.718e-10        
                   5.376e-10         25.0000        1                 
 280               9.852e-10        5.403e-10        5.182e-10        
                   4.914e-10         25.0000        1                 
 281               2.018e-09        7.615e-10        8.792e-10        
                   1.128e-09         25.0000        1                 
 282               1.160e-09        7.243e-10        5.465e-10        
                   6.638e-10         25.0000        1                 
 283               1.496e-09        7.668e-10        6.604e-10        
                   8.581e-10         25.0000        1                 
 284               2.071e-09        9.611e-10        8.206e-10        
                   1.402e-09         25.0000        1                 
 285               1.254e-09        6.453e-10        5.979e-10        
                   6.946e-10         25.0000        1                 
 286               2.243e-09        1.275e-09        8.242e-10        
                   1.462e-09         25.0000        1                 
 287               1.125e-09        5.972e-10        5.600e-10        
                   6.424e-10         25.0000        1                 
 288               1.457e-09        6.808e-10        6.691e-10        
                   7.788e-10         25.0000        1                 
 289               1.229e-09        9.670e-10        5.341e-10        
                   7.058e-10         25.0000        1                 
 290               1.201e-09        1.194e-09        4.970e-10        
                   6.345e-10         25.0000        1                 
 291               1.407e-09        9.867e-10        5.889e-10        
                   8.270e-10         25.0000        1                 
 292               1.971e-09        1.328e-09        7.267e-10        
                   1.237e-09         25.0000        1                 
 293               1.228e-09        4.906e-10        6.427e-10        
                   6.393e-10         25.0000        1                 
 294               9.865e-10        1.082e-09        4.404e-10        
                   4.932e-10         25.0000        1                 
 295               4.752e-09        2.106e-09        1.580e-09        
                   3.430e-09         25.0000        1                 
 296               6.916e-10        5.597e-10        4.029e-10        
                   3.622e-10         25.0000        1                 
 297               7.539e-10        4.941e-10        4.402e-10        
                   3.825e-10         25.0000        1                 
 298               6.967e-10        4.868e-10        4.232e-10        
                   3.903e-10         25.0000        1                 
 299               1.656e-09        9.213e-10        6.868e-10        
                   9.569e-10         25.0000        1                 
 300               1.457e-09        1.059e-09        5.952e-10        
                   8.936e-10         25.0000        1                 
 301               1.384e-09        5.860e-10        6.691e-10        
                   7.640e-10         25.0000        1                 
 302               1.013e-09        9.690e-10        4.629e-10        
                   5.367e-10         25.0000        1                 
 303               7.774e-10        4.784e-10        4.527e-10        
                   3.946e-10         25.0000        1                 
 304               1.041e-09        6.172e-10        5.233e-10        
                   5.495e-10         25.0000        1                 
 305               1.627e-09        8.101e-10        6.990e-10        
                   9.586e-10         25.0000        1                 
 306               1.099e-09        6.609e-10        5.363e-10        
                   6.138e-10         25.0000        1                 
 307               1.460e-09        8.608e-10        6.271e-10        
                   8.794e-10         25.0000        1                 
 308               8.423e-10        5.857e-10        4.576e-10        
                   4.509e-10         25.0000        1                 
 309               9.573e-10        5.461e-10        5.072e-10        
                   4.977e-10         25.0000        1                 
 310               9.970e-10        6.887e-10        4.946e-10        
                   5.289e-10         25.0000        1                 
 311               1.690e-09        7.117e-10        7.564e-10        
                   9.195e-10         25.0000        1                 
 312               8.513e-10        8.150e-10        4.282e-10        
                   4.438e-10         25.0000        1                 
 313               7.869e-10        5.735e-10        4.385e-10        
                   4.089e-10         25.0000        1                 
 314               8.969e-10        7.558e-10        4.487e-10        
                   4.487e-10         25.0000        1                 
 315               9.474e-10        6.099e-10        4.910e-10        
                   5.113e-10         25.0000        1                 
 316               9.723e-10        6.676e-10        4.901e-10        
                   5.353e-10         25.0000        1                 
 317               1.572e-09        9.113e-10        6.584e-10        
                   9.132e-10         25.0000        1                 
 318               1.104e-09        7.338e-10        5.247e-10        
                   6.034e-10         25.0000        1                 
 319               1.223e-09        8.988e-10        5.399e-10        
                   6.604e-10         25.0000        1                 
 320               1.425e-09        9.088e-10        6.072e-10        
                   8.318e-10         25.0000        1                 
 321               7.092e-10        4.997e-10        4.236e-10        
                   3.769e-10         25.0000        1                 
 322               8.758e-10        6.881e-10        4.528e-10        
                   4.589e-10         25.0000        1                 
 323               1.292e-09        7.653e-10        5.851e-10        
                   7.807e-10         25.0000        1                 
 324               2.124e-09        1.184e-09        7.989e-10        
                   1.382e-09         25.0000        1                 
 325               1.823e-09        1.451e-09        6.640e-10        
                   1.110e-09         25.0000        1                 
 326               2.248e-09        1.381e-09        8.126e-10        
                   1.421e-09         25.0000        1                 
 327               8.953e-10        6.868e-10        4.615e-10        
                   5.024e-10         25.0000        1                 
 328               1.029e-09        5.760e-10        5.276e-10        
                   5.394e-10         25.0000        1                 
 329               1.882e-09        8.367e-10        7.932e-10        
                   1.086e-09         25.0000        1                 
 330               8.020e-10        6.233e-10        4.385e-10        
                   4.426e-10         25.0000        1                 
 331               1.516e-09        7.749e-10        6.660e-10        
                   8.607e-10         25.0000        1                 
 332               1.693e-09        8.867e-10        7.041e-10        
                   1.059e-09         25.0000        1                 
 333               1.292e-09        6.208e-10        6.179e-10        
                   7.665e-10         25.0000        1                 
 334               9.701e-10        5.810e-10        5.054e-10        
                   5.338e-10         25.0000        1                 
 335               1.079e-09        7.901e-10        5.076e-10        
                   5.975e-10         25.0000        1                 
 336               1.535e-09        1.025e-09        6.260e-10        
                   9.329e-10         25.0000        1                 
 337               1.068e-09        1.227e-09        4.500e-10        
                   5.300e-10         25.0000        1                 
 338               9.586e-10        4.557e-10        5.338e-10        
                   4.814e-10         25.0000        1                 
 339               8.714e-10        7.923e-10        4.373e-10        
                   4.575e-10         25.0000        1                 
 340               9.108e-10        7.442e-10        4.572e-10        
                   4.863e-10         25.0000        1                 
 341               9.725e-10        5.487e-10        5.121e-10        
                   5.047e-10         25.0000        1                 
 342               1.084e-09        6.358e-10        5.355e-10        
                   5.778e-10         25.0000        1                 
 343               1.649e-09        5.937e-10        7.926e-10        
                   8.239e-10         25.0000        1                 
 344               8.352e-10        5.139e-10        4.671e-10        
                   4.237e-10         25.0000        1                 
 345               1.537e-09        6.509e-10        7.095e-10        
                   8.808e-10         25.0000        1                 
 346               1.021e-09        5.744e-10        5.245e-10        
                   5.209e-10         25.0000        1                 
 347               6.788e-10        6.009e-10        3.882e-10        
                   3.562e-10         25.0000        1                 
 348               2.122e-09        1.064e-09        8.258e-10        
                   1.304e-09         25.0000        1                 
 349               1.106e-09        7.126e-10        5.287e-10        
                   5.919e-10         25.0000        1                 
 350               1.009e-09        7.074e-10        4.954e-10        
                   5.273e-10         25.0000        1                 
 351               1.099e-09        5.671e-10        5.577e-10        
                   5.807e-10         25.0000        1                 
 352               9.457e-10        6.750e-10        4.781e-10        
                   4.868e-10         25.0000        1                 
 353               1.948e-09        1.172e-09        7.466e-10        
                   1.110e-09         25.0000        1                 
 354               1.803e-09        8.971e-10        7.444e-10        
                   1.094e-09         25.0000        1                 
 355               1.611e-09        7.444e-10        7.096e-10        
                   9.585e-10         25.0000        1                 
 356               1.377e-09        7.292e-10        6.250e-10        
                   7.421e-10         25.0000        1                 
 357               9.511e-10        7.380e-10        4.707e-10        
                   5.002e-10         25.0000        1                 
 358               1.997e-09        8.884e-10        8.217e-10        
                   1.194e-09         25.0000        1                 
 359               1.147e-09        7.743e-10        5.335e-10        
                   6.616e-10         25.0000        1                 
 360               1.702e-09        1.023e-09        6.847e-10        
                   9.877e-10         25.0000        1                 
 361               1.281e-09        6.542e-10        6.053e-10        
                   7.317e-10         25.0000        1                 
 362               1.139e-09        5.220e-10        5.882e-10        
                   6.294e-10         25.0000        1                 
 363               1.072e-09        6.522e-10        5.277e-10        
                   5.775e-10         25.0000        1                 
 364               8.328e-10        4.174e-10        4.928e-10        
                   4.232e-10         25.0000        1                 
 365               1.138e-09        7.197e-10        5.390e-10        
                   6.128e-10         25.0000        1                 
 366               1.048e-09        6.568e-10        5.191e-10        
                   5.968e-10         25.0000        1                 
 367               1.108e-09        7.139e-10        5.294e-10        
                   6.066e-10         25.0000        1                 
 368               9.192e-10        5.379e-10        4.945e-10        
                   4.803e-10         25.0000        1                 
 369               6.835e-10        5.679e-10        3.933e-10        
                   3.292e-10         25.0000        1                 
 370               1.532e-09        7.650e-10        6.733e-10        
                   9.106e-10         25.0000        1                 
 371               1.028e-09        5.887e-10        5.238e-10        
                   5.254e-10         25.0000        1                 
 372               1.028e-09        5.948e-10        5.232e-10        
                   5.483e-10         25.0000        1                 
 373               9.612e-10        6.722e-10        4.849e-10        
                   5.127e-10         25.0000        1                 
 374               8.393e-10        5.716e-10        4.597e-10        
                   4.620e-10         25.0000        1                 
 375               1.075e-09        8.065e-10        5.050e-10        
                   6.262e-10         25.0000        1                 
 376               1.939e-09        8.991e-10        7.947e-10        
                   1.198e-09         25.0000        1                 
 377               7.949e-10        6.686e-10        4.278e-10        
                   4.176e-10         25.0000        1                 
 378               1.002e-09        7.785e-10        4.843e-10        
                   5.661e-10         25.0000        1                 
 379               2.118e-09        8.841e-10        8.743e-10        
                   1.230e-09         25.0000        1                 
 380               9.476e-10        6.840e-10        4.789e-10        
                   5.162e-10         25.0000        1                 
 381               7.813e-10        3.966e-10        4.734e-10        
                   3.728e-10         25.0000        1                 
 382               1.633e-09        1.016e-09        6.592e-10        
                   1.052e-09         25.0000        1                 
 383               1.737e-09        1.537e-09        6.284e-10        
                   1.044e-09         25.0000        1                 
 384               1.013e-09        9.303e-10        4.667e-10        
                   5.265e-10         25.0000        1                 
 385               1.388e-09        5.245e-10        7.009e-10        
                   7.244e-10         25.0000        1                 
 386               1.218e-09        8.080e-10        5.524e-10        
                   6.894e-10         25.0000        1                 
 387               9.123e-10        6.436e-10        4.721e-10        
                   4.802e-10         25.0000        1                 
 388               1.132e-09        5.202e-10        5.843e-10        
                   5.405e-10         25.0000        1                 
 389               7.839e-10        6.019e-10        4.326e-10        
                   4.028e-10         25.0000        1                 
 390               1.955e-09        1.449e-09        7.076e-10        
                   1.215e-09         25.0000        1                 
 391               9.301e-10        5.776e-10        4.884e-10        
                   4.571e-10         25.0000        1                 
 392               1.767e-09        8.852e-10        7.349e-10        
                   1.048e-09         25.0000        1                 
 393               8.438e-10        6.046e-10        4.551e-10        
                   4.506e-10         25.0000        1                 
 394               1.233e-09        7.446e-10        5.684e-10        
                   6.677e-10         25.0000        1                 
 395               1.367e-09        1.045e-09        5.680e-10        
                   8.119e-10         25.0000        1                 
 396               1.186e-09        6.933e-10        5.614e-10        
                   6.673e-10         25.0000        1                 
 397               1.456e-09        1.444e-09        5.488e-10        
                   7.739e-10         25.0000        1                 
 398               1.556e-09        1.061e-09        6.280e-10        
                   9.255e-10         25.0000        1                 
 399               1.536e-09        5.973e-10        7.335e-10        
                   8.138e-10         25.0000        1                 
 400               9.811e-10        6.845e-10        4.897e-10        
                   5.208e-10         25.0000        1                 
 401               1.605e-09        8.771e-10        6.771e-10        
                   9.207e-10         25.0000        1                 
 402               1.088e-09        9.731e-10        4.857e-10        
                   5.750e-10         25.0000        1                 
 403               7.594e-10        5.437e-10        4.340e-10        
                   3.964e-10         25.0000        1                 
 404               9.293e-10        8.748e-10        4.460e-10        
                   4.800e-10         25.0000        1                 
 405               1.643e-09        1.073e-09        6.554e-10        
                   9.517e-10         25.0000        1                 
 406               8.201e-10        6.243e-10        4.417e-10        
                   4.181e-10         25.0000        1                 
 407               2.074e-09        1.122e-09        7.923e-10        
                   1.346e-09         25.0000        1                 
 408               1.191e-09        7.304e-10        5.561e-10        
                   6.468e-10         25.0000        1                 
 409               1.835e-09        7.857e-10        7.876e-10        
                   1.078e-09         25.0000        1                 
 410               8.127e-10        7.455e-10        4.229e-10        
                   4.208e-10         25.0000        1                 
 411               1.979e-09        1.282e-09        7.339e-10        
                   1.286e-09         25.0000        1                 
 412               8.325e-10        5.320e-10        4.618e-10        
                   4.188e-10         25.0000        1                 
 413               1.653e-09        8.314e-10        7.042e-10        
                   9.713e-10         25.0000        1                 
 414               1.163e-09        8.003e-10        5.347e-10        
                   6.499e-10         25.0000        1                 
 415               1.483e-09        9.728e-10        6.173e-10        
                   8.506e-10         25.0000        1                 
 416               9.739e-10        6.006e-10        5.016e-10        
                   5.048e-10         25.0000        1                 
 417               1.645e-09        9.282e-10        6.775e-10        
                   1.061e-09         25.0000        1                 
 418               1.138e-09        9.064e-10        5.110e-10        
                   6.454e-10         25.0000        1                 
 419               7.753e-10        5.560e-10        4.339e-10        
                   3.678e-10         25.0000        1                 
 420               1.353e-09        5.954e-10        6.536e-10        
                   6.879e-10         25.0000        1                 
 421               1.418e-09        1.253e-09        5.578e-10        
                   8.430e-10         25.0000        1                 
 422               1.978e-09        6.245e-10        9.377e-10        
                   1.033e-09         25.0000        1                 
 423               8.925e-10        4.744e-10        5.012e-10        
                   4.799e-10         25.0000        1                 
 424               7.602e-10        6.336e-10        4.176e-10        
                   3.864e-10         25.0000        1                 
 425               9.792e-10        4.910e-10        5.307e-10        
                   5.057e-10         25.0000        1                 
 426               1.228e-09        7.676e-10        5.629e-10        
                   6.979e-10         25.0000        1                 
 427               1.147e-09        7.236e-10        5.418e-10        
                   6.367e-10         25.0000        1                 
 428               6.033e-10        5.699e-10        3.398e-10        
                   2.485e-10         25.0000        1                 
 429               2.220e-09        1.268e-09        8.189e-10        
                   1.424e-09         25.0000        1                 
 430               1.035e-09        6.283e-10        5.179e-10        
                   5.234e-10         25.0000        1                 
 431               1.481e-09        1.085e-09        5.997e-10        
                   8.888e-10         25.0000        1                 
 432               2.535e-09        8.685e-10        1.038e-09        
                   1.654e-09         25.0000        1                 
 433               6.890e-10        5.251e-10        4.075e-10        
                   3.483e-10         25.0000        1                 
 434               1.345e-09        1.110e-09        5.521e-10        
                   7.603e-10         25.0000        1                 
 435               1.783e-09        9.806e-10        7.184e-10        
                   1.106e-09         25.0000        1                 
 436               1.098e-09        8.043e-10        5.111e-10        
                   5.679e-10         25.0000        1                 
 437               1.443e-09        1.139e-09        5.805e-10        
                   8.475e-10         25.0000        1                 
 438               7.973e-10        4.719e-10        4.622e-10        
                   4.085e-10         25.0000        1                 
 439               9.076e-10        6.715e-10        4.646e-10        
                   4.555e-10         25.0000        1                 
 440               1.460e-09        1.047e-09        5.977e-10        
                   8.593e-10         25.0000        1                 
 441               1.229e-09        6.238e-10        5.935e-10        
                   6.319e-10         25.0000        1                 
 442               1.701e-09        8.700e-10        7.143e-10        
                   9.834e-10         25.0000        1                 
 443               8.866e-10        5.248e-10        4.846e-10        
                   4.534e-10         25.0000        1                 
 444               1.184e-09        7.005e-10        5.595e-10        
                   6.592e-10         25.0000        1                 
 445               8.171e-10        6.755e-10        4.335e-10        
                   4.188e-10         25.0000        1                 
 446               2.723e-09        1.738e-09        9.183e-10        
                   1.907e-09         25.0000        1                 
 447               1.452e-09        7.908e-10        6.385e-10        
                   8.433e-10         25.0000        1                 
 448               7.343e-10        7.081e-10        3.949e-10        
                   3.783e-10         25.0000        1                 
 449               1.120e-09        6.379e-10        5.479e-10        
                   5.859e-10         25.0000        1                 
 450               1.126e-09        8.216e-10        5.193e-10        
                   6.425e-10         25.0000        1                 
 451               1.150e-09        7.537e-10        5.377e-10        
                   6.701e-10         25.0000        1                 
 452               1.623e-09        1.169e-09        6.345e-10        
                   9.734e-10         25.0000        1                 
 453               1.076e-09        7.681e-10        5.096e-10        
                   5.798e-10         25.0000        1                 
 454               1.778e-09        1.646e-09        6.295e-10        
                   1.015e-09         25.0000        1                 
 455               1.044e-09        7.657e-10        4.990e-10        
                   5.562e-10         25.0000        1                 
 456               1.278e-09        6.557e-10        6.041e-10        
                   7.136e-10         25.0000        1                 
 457               1.115e-09        6.139e-10        5.520e-10        
                   5.915e-10         25.0000        1                 
 458               1.865e-09        8.443e-10        7.833e-10        
                   1.090e-09         25.0000        1                 
 459               1.580e-09        1.176e-09        6.192e-10        
                   9.449e-10         25.0000        1                 
 460               2.138e-09        1.340e-09        7.796e-10        
                   1.395e-09         25.0000        1                 
 461               1.492e-09        7.599e-10        6.582e-10        
                   9.158e-10         25.0000        1                 
 462               1.363e-09        8.538e-10        5.950e-10        
                   7.947e-10         25.0000        1                 
 463               1.437e-09        1.037e-09        5.912e-10        
                   8.740e-10         25.0000        1                 
 464               8.899e-10        6.588e-10        4.616e-10        
                   4.649e-10         25.0000        1                 
 465               2.202e-09        8.373e-10        9.280e-10        
                   1.268e-09         25.0000        1                 
 466               1.029e-09        5.717e-10        5.273e-10        
                   5.050e-10         25.0000        1                 
 467               1.528e-09        1.034e-09        6.231e-10        
                   8.805e-10         25.0000        1                 
 468               9.009e-10        6.198e-10        4.737e-10        
                   5.026e-10         25.0000        1                 
 469               2.004e-09        9.281e-10        8.115e-10        
                   1.238e-09         25.0000        1                 
 470               9.705e-10        8.478e-10        4.636e-10        
                   5.157e-10         25.0000        1                 
 471               1.141e-09        6.923e-10        5.455e-10        
                   6.828e-10         25.0000        1                 
 472               8.888e-10        5.492e-10        4.787e-10        
                   4.365e-10         25.0000        1                 
 473               1.050e-09        9.155e-10        4.808e-10        
                   5.749e-10         25.0000        1                 
 474               7.980e-10        5.790e-10        4.388e-10        
                   3.859e-10         25.0000        1                 
 475               1.366e-09        1.181e-09        5.491e-10        
                   7.366e-10         25.0000        1                 
 476               7.229e-10        4.438e-10        4.374e-10        
                   3.451e-10         25.0000        1                 
 477               1.255e-09        1.011e-09        5.347e-10        
                   6.839e-10         25.0000        1                 
 478               1.241e-09        1.240e-09        5.041e-10        
                   6.992e-10         25.0000        1                 
 479               1.322e-09        1.056e-09        5.517e-10        
                   7.591e-10         25.0000        1                 
 480               5.554e-10        5.135e-10        3.112e-10        
                   1.544e-10         25.0000        1                 
 481               1.557e-09        1.207e-09        6.077e-10        
                   9.818e-10         25.0000        1                 
 482               1.057e-09        6.739e-10        5.182e-10        
                   5.589e-10         25.0000        1                 
 483               9.247e-10        5.516e-10        4.938e-10        
                   4.898e-10         25.0000        1                 
 484               1.000e-09        9.294e-10        4.638e-10        
                   5.366e-10         25.0000        1                 
 485               8.240e-10        6.373e-10        4.442e-10        
                   4.598e-10         25.0000        1                 
 486               7.309e-10        4.972e-10        4.324e-10        
                   3.846e-10         25.0000        1                 
 487               1.332e-09        6.456e-10        6.289e-10        
                   7.167e-10         25.0000        1                 
 488               1.090e-09        7.537e-10        5.172e-10        
                   6.105e-10         25.0000        1                 
 489               1.450e-09        7.631e-10        6.417e-10        
                   9.090e-10         25.0000        1                 
 490               1.625e-09        1.082e-09        6.471e-10        
                   1.020e-09         25.0000        1                 
 491               9.683e-10        6.046e-10        4.990e-10        
                   5.068e-10         25.0000        1                 
 492               1.229e-09        4.078e-10        7.044e-10        
                   5.920e-10         25.0000        1                 
 493               7.865e-10        5.306e-10        4.458e-10        
                   4.046e-10         25.0000        1                 
 494               7.603e-10        5.319e-10        4.370e-10        
                   4.037e-10         25.0000        1                 
 495               1.287e-09        8.155e-10        5.752e-10        
                   7.432e-10         25.0000        1                 
 496               9.524e-10        7.405e-10        4.724e-10        
                   5.203e-10         25.0000        1                 
 497               9.144e-10        5.568e-10        4.895e-10        
                   4.959e-10         25.0000        1                 
 498               1.635e-09        9.142e-10        6.816e-10        
                   9.094e-10         25.0000        1                 
 499               9.033e-10        5.905e-10        4.792e-10        
                   4.953e-10         25.0000        1                 
 500               1.966e-09        1.235e-09        7.392e-10        
                   1.196e-09         25.0000        1                 
 501               1.247e-09        9.088e-10        5.477e-10        
                   7.508e-10         25.0000        1                 
 502               1.818e-09        7.477e-10        7.952e-10        
                   1.031e-09         25.0000        1                 
 503               2.766e-09        1.230e-09        1.022e-09        
                   1.824e-09         25.0000        1                 
 504               1.160e-09        8.717e-10        5.226e-10        
                   6.357e-10         25.0000        1                 
 505               7.818e-10        6.197e-10        4.294e-10        
                   4.027e-10         25.0000        1                 
 506               1.348e-09        8.847e-10        5.846e-10        
                   7.570e-10         25.0000        1                 
 507               1.077e-09        6.650e-10        5.280e-10        
                   6.135e-10         25.0000        1                 
 508               1.221e-09        6.259e-10        5.899e-10        
                   6.420e-10         25.0000        1                 
 509               9.235e-10        4.392e-10        5.251e-10        
                   4.715e-10         25.0000        1                 
 510               2.146e-09        1.099e-09        8.240e-10        
                   1.378e-09         25.0000        1                 
 511               9.228e-10        6.786e-10        4.706e-10        
                   4.885e-10         25.0000        1                 
 512               7.545e-10        5.703e-10        4.285e-10        
                   4.047e-10         25.0000        1                 
 513               6.896e-10        6.069e-10        3.867e-10        
                   3.199e-10         25.0000        1                 
 514               1.343e-09        1.270e-09        5.315e-10        
                   7.325e-10         25.0000        1                 
 515               7.178e-10        6.373e-10        4.009e-10        
                   3.783e-10         25.0000        1                 
 516               1.275e-09        6.921e-10        5.947e-10        
                   7.243e-10         25.0000        1                 
 517               1.590e-09        6.803e-10        7.234e-10        
                   8.770e-10         25.0000        1                 
 518               8.100e-10        6.269e-10        4.399e-10        
                   4.371e-10         25.0000        1                 
 519               1.836e-09        1.001e-09        7.363e-10        
                   1.075e-09         25.0000        1                 
 520               1.871e-09        1.087e-09        7.305e-10        
                   1.159e-09         25.0000        1                 
 521               1.026e-09        7.686e-10        4.928e-10        
                   5.641e-10         25.0000        1                 
 522               1.058e-09        5.505e-10        5.450e-10        
                   5.458e-10         25.0000        1                 
 523               1.511e-09        8.707e-10        6.438e-10        
                   8.951e-10         25.0000        1                 
 524               1.067e-09        7.865e-10        5.049e-10        
                   6.077e-10         25.0000        1                 
 525               1.773e-09        7.476e-10        7.726e-10        
                   1.067e-09         25.0000        1                 
 526               9.771e-10        9.690e-10        4.512e-10        
                   5.056e-10         25.0000        1                 
 527               1.532e-09        6.124e-10        7.271e-10        
                   7.830e-10         25.0000        1                 
 528               8.495e-10        6.825e-10        4.425e-10        
                   4.247e-10         25.0000        1                 
 529               1.416e-09        9.182e-10        6.030e-10        
                   7.908e-10         25.0000        1                 
 530               9.549e-10        9.258e-10        4.487e-10        
                   5.002e-10         25.0000        1                 
 531               1.506e-09        7.984e-10        6.573e-10        
                   8.511e-10         25.0000        1                 
 532               1.418e-09        5.924e-10        6.826e-10        
                   7.515e-10         25.0000        1                 
 533               9.055e-10        8.075e-10        4.462e-10        
                   4.648e-10         25.0000        1                 
 534               8.304e-10        5.987e-10        4.515e-10        
                   4.463e-10         25.0000        1                 
 535               9.948e-10        7.303e-10        4.884e-10        
                   5.500e-10         25.0000        1                 
 536               7.873e-10        6.796e-10        4.190e-10        
                   3.801e-10         25.0000        1                 
 537               5.151e-09        1.310e-09        1.993e-09        
                   3.618e-09         25.0000        1                 
 538               1.042e-09        7.255e-10        5.057e-10        
                   6.068e-10         25.0000        1                 
 539               2.068e-09        6.706e-10        9.447e-10        
                   1.168e-09         25.0000        1                 
 540               1.211e-09        1.050e-09        5.176e-10        
                   7.052e-10         25.0000        1                 
 541               1.733e-09        1.142e-09        6.733e-10        
                   1.116e-09         25.0000        1                 
 542               1.295e-09        6.061e-10        6.256e-10        
                   6.735e-10         25.0000        1                 
 543               2.343e-09        9.694e-10        9.329e-10        
                   1.452e-09         25.0000        1                 
 544               1.118e-09        8.695e-10        5.113e-10        
                   6.767e-10         25.0000        1                 
 545               1.164e-09        7.251e-10        5.472e-10        
                   6.240e-10         25.0000        1                 
 546               9.859e-10        5.545e-10        5.155e-10        
                   5.009e-10         25.0000        1                 
 547               1.021e-09        6.092e-10        5.165e-10        
                   5.164e-10         25.0000        1                 
 548               1.543e-09        8.414e-10        6.604e-10        
                   9.286e-10         25.0000        1                 
 549               1.726e-09        7.994e-10        7.416e-10        
                   9.872e-10         25.0000        1                 
 550               1.623e-09        7.259e-10        7.199e-10        
                   9.440e-10         25.0000        1                 
 551               1.010e-09        6.610e-10        5.041e-10        
                   5.498e-10         25.0000        1                 
 552               8.564e-10        5.610e-10        4.647e-10        
                   4.251e-10         25.0000        1                 
 553               1.652e-09        5.128e-10        8.538e-10        
                   7.839e-10         25.0000        1                 
 554               8.202e-10        7.894e-10        4.185e-10        
                   4.172e-10         25.0000        1                 
 555               1.532e-09        7.064e-10        6.905e-10        
                   8.657e-10         25.0000        1                 
 556               1.973e-09        8.979e-10        8.084e-10        
                   1.201e-09         25.0000        1                 
 557               1.377e-09        9.450e-10        5.849e-10        
                   8.318e-10         25.0000        1                 
 558               1.042e-09        6.809e-10        5.119e-10        
                   5.639e-10         25.0000        1                 
 559               1.305e-09        9.745e-10        5.573e-10        
                   7.708e-10         25.0000        1                 
 560               2.197e-09        1.004e-09        8.614e-10        
                   1.433e-09         25.0000        1                 
 561               1.581e-09        8.135e-10        6.787e-10        
                   9.928e-10         25.0000        1                 
 562               1.024e-09        6.720e-10        5.070e-10        
[...]
                   3.568e-10         25.0000        1                 
 4861              9.695e-10        6.933e-10        4.850e-10        
                   5.316e-10         25.0000        1                 
 4862              8.851e-10        6.379e-10        4.619e-10        
                   4.444e-10         25.0000        1                 
 4863              1.374e-09        9.392e-10        5.851e-10        
                   8.033e-10         25.0000        1                 
 4864              1.276e-09        9.884e-10        5.451e-10        
                   7.063e-10         25.0000        1                 
 4865              1.520e-09        5.949e-10        7.275e-10        
                   8.179e-10         25.0000        1                 
 4866              1.377e-09        4.251e-10        7.762e-10        
                   5.911e-10         25.0000        1                 
 4867              1.186e-09        5.501e-10        5.979e-10        
                   6.081e-10         25.0000        1                 
 4868              1.349e-09        9.551e-10        5.740e-10        
                   7.659e-10         25.0000        1                 
 4869              2.840e-09        8.879e-10        1.168e-09        
                   1.832e-09         25.0000        1                 
 4870              1.512e-09        9.424e-10        6.323e-10        
                   8.567e-10         25.0000        1                 
 4871              1.203e-09        6.502e-10        5.770e-10        
                   6.528e-10         25.0000        1                 
 4872              8.524e-10        4.553e-10        4.887e-10        
                   4.296e-10         25.0000        1                 
 4873              2.197e-09        1.125e-09        8.305e-10        
                   1.522e-09         25.0000        1                 
 4874              1.394e-09        7.033e-10        6.379e-10        
                   7.511e-10         25.0000        1                 
 4875              7.853e-10        6.398e-10        4.296e-10        
                   4.259e-10         25.0000        1                 
 4876              1.598e-09        6.514e-10        7.395e-10        
                   8.438e-10         25.0000        1                 
 4877              1.142e-09        7.973e-10        5.262e-10        
                   5.805e-10         25.0000        1                 
 4878              1.005e-09        5.101e-10        5.360e-10        
                   5.423e-10         25.0000        1                 
 4879              1.955e-09        1.012e-09        7.712e-10        
                   1.268e-09         25.0000        1                 
 4880              1.401e-09        1.055e-09        5.774e-10        
                   8.020e-10         25.0000        1                 
 4881              2.102e-09        8.567e-10        8.765e-10        
                   1.208e-09         25.0000        1                 
 4882              8.294e-10        5.229e-10        4.638e-10        
                   4.309e-10         25.0000        1                 
 4883              1.772e-09        9.346e-10        7.265e-10        
                   1.037e-09         25.0000        1                 
 4884              1.972e-09        1.140e-09        7.574e-10        
                   1.208e-09         25.0000        1                 
 4885              1.211e-09        7.186e-10        5.658e-10        
                   7.021e-10         25.0000        1                 
 4886              6.808e-10        5.028e-10        4.095e-10        
                   3.524e-10         25.0000        1                 
 4887              1.319e-09        9.127e-10        5.707e-10        
                   7.579e-10         25.0000        1                 
 4888              7.019e-10        5.453e-10        4.107e-10        
                   3.671e-10         25.0000        1                 
 4889              1.243e-09        8.457e-10        5.548e-10        
                   6.828e-10         25.0000        1                 
 4890              1.806e-09        4.926e-10        9.648e-10        
                   8.890e-10         25.0000        1                 
 4891              1.017e-09        6.889e-10        5.017e-10        
                   5.540e-10         25.0000        1                 
 4892              7.819e-10        5.336e-10        4.460e-10        
                   4.298e-10         25.0000        1                 
 4893              2.264e-09        7.857e-10        9.733e-10        
                   1.333e-09         25.0000        1                 
 4894              1.555e-09        8.831e-10        6.591e-10        
                   8.340e-10         25.0000        1                 
 4895              1.654e-09        5.913e-10        7.943e-10        
                   8.548e-10         25.0000        1                 
 4896              1.851e-09        1.032e-09        7.332e-10        
                   1.143e-09         25.0000        1                 
 4897              1.003e-09        8.619e-10        4.728e-10        
                   5.387e-10         25.0000        1                 
 4898              8.968e-10        4.726e-10        5.010e-10        
                   4.422e-10         25.0000        1                 
 4899              1.166e-09        8.598e-10        5.259e-10        
                   6.147e-10         25.0000        1                 
 4900              1.021e-09        6.839e-10        5.028e-10        
                   5.290e-10         25.0000        1                 
 4901              1.212e-09        6.419e-10        5.820e-10        
                   6.671e-10         25.0000        1                 
 4902              9.752e-10        6.602e-10        4.915e-10        
                   5.178e-10         25.0000        1                 
 4903              2.554e-09        9.628e-10        1.033e-09        
                   1.476e-09         25.0000        1                 
 4904              1.004e-09        5.096e-10        5.355e-10        
                   5.303e-10         25.0000        1                 
 4905              1.021e-09        6.346e-10        5.121e-10        
                   5.302e-10         25.0000        1                 
 4906              1.401e-09        6.744e-10        6.479e-10        
                   7.627e-10         25.0000        1                 
 4907              8.165e-10        6.702e-10        4.349e-10        
                   4.298e-10         25.0000        1                 
 4908              2.220e-09        1.091e-09        8.497e-10        
                   1.462e-09         25.0000        1                 
 4909              7.627e-10        6.430e-10        4.165e-10        
                   3.804e-10         25.0000        1                 
 4910              1.510e-09        7.799e-10        6.617e-10        
                   8.943e-10         25.0000        1                 
 4911              1.406e-09        7.872e-10        6.228e-10        
                   7.763e-10         25.0000        1                 
 4912              1.810e-09        1.366e-09        6.680e-10        
                   1.187e-09         25.0000        1                 
 4913              1.834e-09        9.144e-10        7.483e-10        
                   1.180e-09         25.0000        1                 
 4914              1.018e-09        6.587e-10        5.078e-10        
                   5.596e-10         25.0000        1                 
 4915              2.072e-09        1.751e-09        7.106e-10        
                   1.371e-09         25.0000        1                 
 4916              9.584e-10        6.533e-10        4.874e-10        
                   5.188e-10         25.0000        1                 
 4917              1.001e-09        8.247e-10        4.774e-10        
                   5.559e-10         25.0000        1                 
 4918              5.130e-09        2.034e-09        1.725e-09        
                   3.809e-09         25.0000        1                 
 4919              7.517e-10        5.576e-10        4.284e-10        
                   3.889e-10         25.0000        1                 
 4920              8.459e-10        5.193e-10        4.716e-10        
                   4.515e-10         25.0000        1                 
 4921              9.317e-10        5.833e-10        4.890e-10        
                   4.746e-10         25.0000        1                 
 4922              1.251e-09        7.788e-10        5.689e-10        
                   7.012e-10         25.0000        1                 
 4923              1.003e-09        8.067e-10        4.806e-10        
                   5.626e-10         25.0000        1                 
 4924              1.327e-09        8.616e-10        5.811e-10        
                   7.671e-10         25.0000        1                 
 4925              1.621e-09        1.120e-09        6.393e-10        
                   1.035e-09         25.0000        1                 
 4926              1.483e-09        6.225e-10        6.977e-10        
                   8.415e-10         25.0000        1                 
 4927              1.098e-09        5.659e-10        5.572e-10        
                   5.690e-10         25.0000        1                 
 4928              1.197e-09        1.053e-09        5.123e-10        
                   6.780e-10         25.0000        1                 
 4929              1.007e-09        8.658e-10        4.739e-10        
                   5.414e-10         25.0000        1                 
 4930              1.072e-09        8.964e-10        4.907e-10        
                   5.802e-10         25.0000        1                 
 4931              8.871e-10        4.434e-10        5.057e-10        
                   4.311e-10         25.0000        1                 
 4932              9.060e-10        5.365e-10        4.904e-10        
                   4.834e-10         25.0000        1                 
 4933              3.353e-09        1.126e-09        1.287e-09        
                   2.262e-09         25.0000        1                 
 4934              1.209e-09        1.077e-09        5.122e-10        
                   6.495e-10         25.0000        1                 
 4935              1.530e-09        6.635e-10        7.051e-10        
                   8.283e-10         25.0000        1                 
 4936              1.566e-09        9.184e-10        6.546e-10        
                   9.173e-10         25.0000        1                 
 4937              1.166e-09        7.756e-10        5.394e-10        
                   6.461e-10         25.0000        1                 
 4938              1.398e-09        8.616e-10        6.064e-10        
                   7.344e-10         25.0000        1                 
 4939              1.349e-09        8.176e-10        5.960e-10        
                   8.125e-10         25.0000        1                 
 4940              1.348e-09        9.144e-10        5.803e-10        
                   7.883e-10         25.0000        1                 
 4941              8.703e-10        8.527e-10        4.312e-10        
                   4.615e-10         25.0000        1                 
 4942              7.991e-10        7.021e-10        4.233e-10        
                   4.091e-10         25.0000        1                 
 4943              1.317e-09        7.030e-10        6.078e-10        
                   7.411e-10         25.0000        1                 
 4944              1.917e-09        1.102e-09        7.400e-10        
                   1.269e-09         25.0000        1                 
 4945              1.162e-09        9.249e-10        5.171e-10        
                   6.479e-10         25.0000        1                 
 4946              8.632e-10        6.049e-10        4.628e-10        
                   4.786e-10         25.0000        1                 
 4947              1.514e-09        7.543e-10        6.702e-10        
                   8.668e-10         25.0000        1                 
 4948              1.374e-09        9.010e-10        5.906e-10        
                   8.045e-10         25.0000        1                 
 4949              9.806e-10        6.391e-10        4.957e-10        
                   4.911e-10         25.0000        1                 
 4950              2.411e-09        6.906e-10        1.121e-09        
                   1.263e-09         25.0000        1                 
 4951              1.156e-09        7.379e-10        5.427e-10        
                   6.549e-10         25.0000        1                 
 4952              1.347e-09        1.064e-09        5.579e-10        
                   7.202e-10         25.0000        1                 
 4953              1.444e-09        9.731e-10        6.031e-10        
                   8.785e-10         25.0000        1                 
 4954              1.849e-09        1.008e-09        7.355e-10        
                   1.172e-09         25.0000        1                 
 4955              9.660e-10        8.602e-10        4.602e-10        
                   5.072e-10         25.0000        1                 
 4956              9.663e-10        6.368e-10        4.928e-10        
                   5.213e-10         25.0000        1                 
 4957              5.780e-10        4.727e-10        3.578e-10        
                   2.697e-10         25.0000        1                 
 4958              1.192e-09        6.368e-10        5.760e-10        
                   6.350e-10         25.0000        1                 
 4959              1.079e-09        6.720e-10        5.275e-10        
                   6.265e-10         25.0000        1                 
 4960              9.594e-10        5.034e-10        5.180e-10        
                   4.815e-10         25.0000        1                 
 4961              3.177e-09        6.843e-10        1.561e-09        
                   1.771e-09         25.0000        1                 
 4962              8.629e-10        8.546e-10        4.252e-10        
                   4.296e-10         25.0000        1                 
 4963              1.458e-09        1.169e-09        5.816e-10        
                   8.081e-10         25.0000        1                 
 4964              6.283e-10        4.286e-10        4.020e-10        
                   3.121e-10         25.0000        1                 
 4965              1.305e-09        1.018e-09        5.510e-10        
                   7.402e-10         25.0000        1                 
 4966              8.186e-10        5.233e-10        4.576e-10        
                   4.031e-10         25.0000        1                 
 4967              1.113e-09        6.941e-10        5.348e-10        
                   6.093e-10         25.0000        1                 
 4968              8.205e-10        5.238e-10        4.598e-10        
                   4.202e-10         25.0000        1                 
 4969              8.773e-10        6.126e-10        4.670e-10        
                   4.952e-10         25.0000        1                 
 4970              1.440e-09        6.631e-10        6.654e-10        
                   8.376e-10         25.0000        1                 
 4971              6.500e-10        4.780e-10        3.996e-10        
                   3.263e-10         25.0000        1                 
 4972              9.841e-10        6.733e-10        4.935e-10        
                   5.432e-10         25.0000        1                 
 4973              1.663e-09        8.974e-10        6.955e-10        
                   9.215e-10         25.0000        1                 
 4974              1.441e-09        9.538e-10        6.053e-10        
                   8.526e-10         25.0000        1                 
 4975              8.602e-10        5.716e-10        4.655e-10        
                   4.430e-10         25.0000        1                 
 4976              1.035e-09        5.258e-10        5.421e-10        
                   5.155e-10         25.0000        1                 
 4977              1.202e-09        9.794e-10        5.232e-10        
                   6.759e-10         25.0000        1                 
 4978              1.303e-09        1.307e-09        5.151e-10        
                   7.009e-10         25.0000        1                 
 4979              1.367e-09        8.094e-10        6.047e-10        
                   7.632e-10         25.0000        1                 
 4980              1.088e-09        8.436e-10        5.042e-10        
                   6.355e-10         25.0000        1                 
 4981              1.411e-09        8.857e-10        6.057e-10        
                   8.587e-10         25.0000        1                 
 4982              1.132e-09        5.779e-10        5.674e-10        
                   5.927e-10         25.0000        1                 
 4983              1.285e-09        8.442e-10        5.696e-10        
                   7.310e-10         25.0000        1                 
 4984              1.021e-09        5.884e-10        5.219e-10        
                   5.374e-10         25.0000        1                 
 4985              1.103e-09        7.720e-10        5.182e-10        
                   5.907e-10         25.0000        1                 
 4986              8.362e-10        6.303e-10        4.462e-10        
                   4.222e-10         25.0000        1                 
 4987              1.389e-09        9.832e-10        5.835e-10        
                   7.534e-10         25.0000        1                 
 4988              2.117e-09        1.786e-09        7.209e-10        
                   1.386e-09         25.0000        1                 
 4989              1.800e-09        1.176e-09        6.914e-10        
                   1.127e-09         25.0000        1                 
 4990              1.721e-09        6.313e-10        8.034e-10        
                   9.380e-10         25.0000        1                 
 4991              8.397e-10        6.250e-10        4.497e-10        
                   4.421e-10         25.0000        1                 
 4992              9.491e-10        4.838e-10        5.205e-10        
                   4.870e-10         25.0000        1                 
 4993              9.795e-10        7.497e-10        4.806e-10        
                   5.541e-10         25.0000        1                 
 4994              9.397e-10        6.921e-10        4.745e-10        
                   5.038e-10         25.0000        1                 
 4995              1.384e-09        8.238e-10        6.075e-10        
                   8.113e-10         25.0000        1                 
 4996              1.747e-09        8.734e-10        7.316e-10        
                   9.987e-10         25.0000        1                 
 4997              1.236e-09        6.994e-10        5.784e-10        
                   6.640e-10         25.0000        1                 
 4998              1.817e-09        7.530e-10        7.905e-10        
                   1.073e-09         25.0000        1                 
 4999              9.624e-10        8.549e-10        4.593e-10        
                   5.008e-10         25.0000        1                 
 5000              1.672e-09        9.078e-10        6.925e-10        
                   1.048e-09         25.0000        1                 
