$DATA1 SOURCE='HSPICE' VERSION='F-2011.09 64-BIT'
.TITLE '* include model and subckts'
 index            delay_write1     delay_read1      delay_write0      
                  delay_read0      temper           alter#            
 1                 1.358e-09        7.563e-10        6.260e-10        
                   6.741e-10         25.0000        1                 
 2                 8.503e-10        6.790e-10        4.500e-10        
                   4.397e-10         25.0000        1                 
 3                 3.330e-09        6.727e-10        1.891e-09        
                   1.143e-09         25.0000        1                 
 4                 4.764e-09        1.745e-09        1.742e-09        
                   2.135e-09         25.0000        1                 
 5                 7.041e-10        5.333e-10        4.188e-10        
                   3.701e-10         25.0000        1                 
 6                 1.900e-09        1.124e-09        7.494e-10        
                   9.612e-10         25.0000        1                 
 7                 7.781e-10        6.494e-10        4.295e-10        
                   4.144e-10         25.0000        1                 
 8                 1.861e-09        2.537e-09        5.858e-10        
                   9.551e-10         25.0000        1                 
 9                 1.734e-09        1.935e-09        6.016e-10        
                   9.210e-10         25.0000        1                 
 10                2.406e-09        8.127e-10        1.092e-09        
                   1.034e-09         25.0000        1                 
 11                9.457e-10        1.248e-09        4.131e-10        
                   4.548e-10         25.0000        1                 
 12                1.488e-09        4.994e-10        8.186e-10        
                   6.158e-10         25.0000        1                 
 13                1.201e-09        9.096e-10        5.383e-10        
                   6.215e-10         25.0000        1                 
 14                7.537e-10        4.904e-10        4.486e-10        
                   3.946e-10         25.0000        1                 
 15                1.268e-09        1.559e-09        4.879e-10        
                   6.433e-10         25.0000        1                 
 16                1.484e-09        6.964e-10        6.991e-10        
                   6.926e-10         25.0000        1                 
 17                1.574e-09        1.067e-09        6.456e-10        
                   8.132e-10         25.0000        1                 
 18                9.250e-10        8.044e-10        4.610e-10        
                   4.907e-10         25.0000        1                 
 19                1.180e-09        9.125e-10        5.322e-10        
                   6.231e-10         25.0000        1                 
 20                1.450e-09        1.141e-09        5.901e-10        
                   7.534e-10         25.0000        1                 
 21                1.000e-09        9.914e-10        4.586e-10        
                   5.150e-10         25.0000        1                 
 22                1.411e-09        9.940e-10        5.994e-10        
                   7.296e-10         25.0000        1                 
 23                3.625e-09        9.933e-10        1.632e-09        
                   1.466e-09         25.0000        1                 
 24                9.101e-10        9.111e-10        4.425e-10        
                   4.777e-10         25.0000        1                 
 25                1.407e-09        6.120e-10        6.971e-10        
                   6.466e-10         25.0000        1                 
 26                1.161e-09        1.023e-09        5.099e-10        
                   6.037e-10         25.0000        1                 
 27                2.670e-09        7.692e-10        1.279e-09        
                   1.081e-09         25.0000        1                 
 28                6.190e-10        6.834e-10        3.347e-10        
                   2.987e-10         25.0000        1                 
 29                1.223e-09        6.335e-10        6.046e-10        
                   5.915e-10         25.0000        1                 
 30                5.867e-10        4.975e-10        3.615e-10        
                   2.932e-10         25.0000        1                 
 31                9.148e-10        6.928e-10        4.711e-10        
                   4.747e-10         25.0000        1                 
 32                1.540e-09        1.401e-09        5.847e-10        
                   8.007e-10         25.0000        1                 
 33                1.205e-09        1.152e-09        5.070e-10        
                   6.288e-10         25.0000        1                 
 34                3.641e-09        1.535e-09        1.339e-09        
                   1.702e-09         25.0000        1                 
 35                8.903e-10        7.009e-10        4.616e-10        
                   4.684e-10         25.0000        1                 
 36                8.985e-10        9.193e-10        4.322e-10        
                   4.524e-10         25.0000        1                 
 37                1.272e-09        9.184e-10        5.619e-10        
                   6.593e-10         25.0000        1                 
 38                1.138e-09        1.847e-09        4.277e-10        
                   5.193e-10         25.0000        1                 
 39                1.045e-09        9.418e-10        4.806e-10        
                   5.369e-10         25.0000        1                 
 40                3.175e-09        1.172e-09        1.256e-09        
                   1.430e-09         25.0000        1                 
 41                1.673e-09        3.043e-09        5.009e-10        
                   7.766e-10         25.0000        1                 
 42                1.525e-09        1.159e-09        6.126e-10        
                   7.950e-10         25.0000        1                 
 43                1.107e-09        8.904e-10        5.090e-10        
                   5.741e-10         25.0000        1                 
 44                7.544e-10        8.627e-10        3.811e-10        
                   3.843e-10         25.0000        1                 
 45                1.741e-09        1.279e-09        6.653e-10        
                   9.086e-10         25.0000        1                 
 46                1.224e-09        7.018e-10        5.860e-10        
                   6.114e-10         25.0000        1                 
 47                1.430e-09        9.859e-10        6.074e-10        
                   7.383e-10         25.0000        1                 
 48                1.085e-09        6.048e-10        5.552e-10        
                   5.441e-10         25.0000        1                 
 49                1.356e-09        1.622e-09        5.082e-10        
                   6.946e-10         25.0000        1                 
 50                9.227e-10        7.629e-10        4.643e-10        
                   4.783e-10         25.0000        1                 
 51                1.071e-09        5.653e-10        5.606e-10        
                   5.262e-10         25.0000        1                 
 52                1.348e-09        1.087e-09        5.627e-10        
                   7.010e-10         25.0000        1                 
 53                1.977e-09        1.479e-09        7.154e-10        
                   1.028e-09         25.0000        1                 
 54                1.551e-09        8.648e-10        6.756e-10        
                   7.718e-10         25.0000        1                 
 55                8.131e-10        7.891e-10        4.210e-10        
                   4.236e-10         25.0000        1                 
 56                1.651e-09        9.252e-10        7.006e-10        
                   8.130e-10         25.0000        1                 
 57                7.359e-10        8.446e-10        3.741e-10        
                   3.588e-10         25.0000        1                 
 58                1.333e-09        1.117e-09        5.533e-10        
                   6.997e-10         25.0000        1                 
 59                2.163e-09        2.835e-09        6.505e-10        
                   1.128e-09         25.0000        1                 
 60                9.693e-10        9.404e-10        4.548e-10        
                   4.979e-10         25.0000        1                 
 61                2.151e-09        1.112e-09        8.435e-10        
                   1.054e-09         25.0000        1                 
 62                9.248e-10        9.695e-10        4.387e-10        
                   4.697e-10         25.0000        1                 
 63                1.209e-09        1.384e-09        4.857e-10        
                   6.204e-10         25.0000        1                 
 64                6.669e-10        6.092e-10        3.829e-10        
                   3.378e-10         25.0000        1                 
 65                1.558e-09        1.453e-09        5.870e-10        
                   8.209e-10         25.0000        1                 
 66                1.136e-09        1.357e-09        4.649e-10        
                   5.733e-10         25.0000        1                 
 67                8.310e-10        6.009e-10        4.534e-10        
                   4.151e-10         25.0000        1                 
 68                1.789e-09        2.017e-09        6.119e-10        
                   9.533e-10         25.0000        1                 
 69                1.076e-09        8.572e-10        5.045e-10        
                   5.639e-10         25.0000        1                 
 70                2.409e-09        1.039e-09        9.752e-10        
                   1.131e-09         25.0000        1                 
 71                2.343e-09        2.164e-09        7.659e-10        
                   1.249e-09         25.0000        1                 
 72                2.422e-09        1.054e-09        9.762e-10        
                   1.134e-09         25.0000        1                 
 73                1.582e-09        1.771e-09        5.675e-10        
                   8.280e-10         25.0000        1                 
 74                2.829e-09        1.422e-09        1.035e-09        
                   1.381e-09         25.0000        1                 
 75                1.085e-09        9.431e-10        4.942e-10        
                   5.647e-10         25.0000        1                 
 76                1.362e-09        2.672e-09        4.362e-10        
                   5.758e-10         25.0000        1                 
 77                2.278e-09        1.548e-09        8.128e-10        
                   1.175e-09         25.0000        1                 
 78                1.601e-09        5.573e-10        8.362e-10        
                   6.769e-10         25.0000        1                 
 79                8.156e-10        7.984e-10        4.205e-10        
                   4.241e-10         25.0000        1                 
 80                1.134e-09        8.612e-10        5.214e-10        
                   5.899e-10         25.0000        1                 
 81                1.802e-09        1.418e-09        6.745e-10        
                   9.463e-10         25.0000        1                 
 82                2.033e-09        9.739e-10        8.404e-10        
                   9.714e-10         25.0000        1                 
 83                2.346e-09        2.199e-09        7.597e-10        
                   1.243e-09         25.0000        1                 
 84                1.487e-09        1.288e-09        5.802e-10        
                   7.811e-10         25.0000        1                 
 85                2.055e-09        1.463e-09        7.523e-10        
                   1.070e-09         25.0000        1                 
 86                1.894e-09        2.127e-09        6.280e-10        
                   9.972e-10         25.0000        1                 
 87                8.979e-10        7.076e-10        4.632e-10        
                   4.711e-10         25.0000        1                 
 88                1.767e-09        1.945e-09        6.034e-10        
                   9.246e-10         25.0000        1                 
 89                2.277e-09        1.680e-09        8.012e-10        
                   1.193e-09         25.0000        1                 
 90                8.434e-10        1.037e-09        3.997e-10        
                   4.208e-10         25.0000        1                 
 91                1.219e-09        8.586e-10        5.524e-10        
                   6.308e-10         25.0000        1                 
 92                1.372e-09        6.044e-10        6.832e-10        
                   6.350e-10         25.0000        1                 
 93                3.757e-09        1.247e-09        1.490e-09        
                   1.645e-09         25.0000        1                 
 94                1.170e-09        7.021e-10        5.651e-10        
                   5.871e-10         25.0000        1                 
 95                1.102e-09        6.299e-10        5.544e-10        
                   5.409e-10         25.0000        1                 
 96                1.040e-09        6.318e-10        5.286e-10        
                   5.169e-10         25.0000        1                 
 97                1.278e-09        1.875e-09        4.663e-10        
                   6.190e-10         25.0000        1                 
 98                1.243e-09        9.283e-10        5.486e-10        
                   6.453e-10         25.0000        1                 
 99                3.172e-09        9.107e-10        1.436e-09        
                   1.300e-09         25.0000        1                 
 100               2.965e-09        5.183e-09        7.148e-10        
                   1.456e-09         25.0000        1                 
 101               7.396e-10        5.117e-10        4.401e-10        
                   3.993e-10         25.0000        1                 
 102               1.366e-09        1.040e-09        5.761e-10        
                   7.100e-10         25.0000        1                 
 103               1.193e-09        9.046e-10        5.341e-10        
                   6.153e-10         25.0000        1                 
 104               1.235e-09        1.147e-09        5.163e-10        
                   6.443e-10         25.0000        1                 
 105               2.850e-09        6.923e-10        1.499e-09        
                   1.062e-09         25.0000        1                 
 106               1.533e-09        1.070e-09        6.287e-10        
                   7.888e-10         25.0000        1                 
 107               1.539e-09        1.463e-09        5.815e-10        
                   8.152e-10         25.0000        1                 
 108               9.431e-10        4.444e-10        5.446e-10        
                   4.409e-10         25.0000        1                 
 109               1.433e-09        1.687e-09        5.277e-10        
                   7.436e-10         25.0000        1                 
 110               2.935e-09        1.238e-09        1.132e-09        
                   1.369e-09         25.0000        1                 
 111               1.363e-09        7.149e-10        6.386e-10        
                   6.699e-10         25.0000        1                 
 112               2.031e-09        7.019e-10        9.638e-10        
                   8.753e-10         25.0000        1                 
 113               1.431e-09        1.400e-09        5.520e-10        
                   7.523e-10         25.0000        1                 
 114               1.542e-09        1.427e-09        5.838e-10        
                   8.115e-10         25.0000        1                 
 115               1.223e-09        9.411e-10        5.429e-10        
                   6.416e-10         25.0000        1                 
 116               1.542e-09        8.868e-10        6.651e-10        
                   7.723e-10         25.0000        1                 
 117               1.689e-09        2.631e-09        5.304e-10        
                   8.319e-10         25.0000        1                 
 118               6.948e-10        7.251e-10        3.726e-10        
                   3.492e-10         25.0000        1                 
 119               1.863e-09        7.525e-10        8.459e-10        
                   8.518e-10         25.0000        1                 
 120               1.593e-09        8.639e-10        6.917e-10        
                   7.838e-10         25.0000        1                 
 121               8.529e-10        6.252e-10        4.582e-10        
                   4.337e-10         25.0000        1                 
 122               1.628e-09        2.615e-09        5.181e-10        
                   8.013e-10         25.0000        1                 
 123               9.295e-10        8.362e-10        4.550e-10        
                   4.786e-10         25.0000        1                 
 124               3.404e-09        1.500e-09        1.244e-09        
                   1.606e-09         25.0000        1                 
 125               9.298e-10        9.536e-10        4.416e-10        
                   4.817e-10         25.0000        1                 
 126               1.106e-09        6.343e-10        5.556e-10        
                   5.459e-10         25.0000        1                 
 127               5.091e-10        4.235e-10        3.217e-10        
                   2.031e-10         25.0000        1                 
 128               1.778e-09        9.131e-10        7.544e-10        
                   8.617e-10         25.0000        1                 
 129               4.016e-09        1.206e-09        1.666e-09        
                   1.695e-09         25.0000        1                 
 130               9.131e-10        9.863e-10        4.308e-10        
                   4.631e-10         25.0000        1                 
 131               1.574e-09        9.822e-10        6.564e-10        
                   8.034e-10         25.0000        1                 
 132               1.355e-09        1.270e-09        5.451e-10        
                   7.170e-10         25.0000        1                 
 133               1.637e-09        9.608e-10        6.845e-10        
                   8.221e-10         25.0000        1                 
 134               3.438e-09        1.713e-09        1.211e-09        
                   1.665e-09         25.0000        1                 
 135               8.607e-10        6.093e-10        4.655e-10        
                   4.446e-10         25.0000        1                 
 136               1.753e-09        1.541e-09        6.379e-10        
                   9.189e-10         25.0000        1                 
 137               3.107e-09        1.517e-09        1.125e-09        
                   1.502e-09         25.0000        1                 
 138               3.720e-09        9.747e-10        1.686e-09        
                   1.484e-09         25.0000        1                 
 139               9.086e-10        8.126e-10        4.528e-10        
                   4.784e-10         25.0000        1                 
 140               2.283e-09        9.828e-10        9.390e-10        
                   1.069e-09         25.0000        1                 
 141               1.034e-09        6.392e-10        5.264e-10        
                   5.222e-10         25.0000        1                 
 142               1.034e-09        1.275e-09        4.384e-10        
                   5.086e-10         25.0000        1                 
 143               4.633e-09        1.549e-09        1.755e-09        
                   2.027e-09         25.0000        1                 
 144               1.813e-09        1.494e-09        6.629e-10        
                   9.505e-10         25.0000        1                 
 145               2.914e-09        1.377e-09        1.082e-09        
                   1.399e-09         25.0000        1                 
 146               1.162e-09        8.444e-10        5.350e-10        
                   6.050e-10         25.0000        1                 
 147               5.745e-10        4.872e-10        3.521e-10        
                   2.675e-10         25.0000        1                 
 148               8.600e-10        4.719e-10        4.956e-10        
                   4.210e-10         25.0000        1                 
 149               2.256e-09        3.081e-09        6.558e-10        
                   1.167e-09         25.0000        1                 
 150               1.823e-09        6.252e-10        9.082e-10        
                   7.750e-10         25.0000        1                 
 151               1.193e-09        7.378e-10        5.660e-10        
                   5.984e-10         25.0000        1                 
 152               2.500e-09        7.708e-10        1.170e-09        
                   1.041e-09         25.0000        1                 
 153               9.994e-10        6.214e-10        5.163e-10        
                   5.066e-10         25.0000        1                 
 154               3.538e-09        4.832e-09        8.969e-10        
                   1.868e-09         25.0000        1                 
 155               9.460e-10        1.130e-09        4.308e-10        
                   4.836e-10         25.0000        1                 
 156               1.061e-09        6.394e-10        5.364e-10        
                   5.341e-10         25.0000        1                 
 157               7.401e-10        7.423e-10        3.957e-10        
                   3.834e-10         25.0000        1                 
 158               1.441e-09        1.156e-09        5.861e-10        
                   7.573e-10         25.0000        1                 
 159               2.231e-09        1.129e-09        8.771e-10        
                   1.088e-09         25.0000        1                 
 160               1.378e-09        9.309e-10        5.981e-10        
                   7.016e-10         25.0000        1                 
 161               1.906e-09        1.367e-09        7.113e-10        
                   9.952e-10         25.0000        1                 
 162               7.008e-10        6.479e-10        3.940e-10        
                   3.656e-10         25.0000        1                 
 163               1.200e-09        1.105e-09        5.116e-10        
                   6.242e-10         25.0000        1                 
 164               1.062e-09        1.037e-09        4.760e-10        
                   5.542e-10         25.0000        1                 
 165               8.805e-10        5.805e-10        4.784e-10        
                   4.491e-10         25.0000        1                 
 166               1.197e-09        1.851e-09        4.466e-10        
                   5.704e-10         25.0000        1                 
 167               1.629e-09        1.125e-09        6.526e-10        
                   8.411e-10         25.0000        1                 
 168               6.832e-10        5.471e-10        4.042e-10        
                   3.538e-10         25.0000        1                 
 169               1.360e-09        1.545e-09        5.186e-10        
                   7.072e-10         25.0000        1                 
 170               2.338e-09        6.664e-10        1.178e-09        
                   9.328e-10         25.0000        1                 
 171               6.955e-10        4.844e-10        4.232e-10        
                   3.519e-10         25.0000        1                 
 172               1.167e-09        1.301e-09        4.790e-10        
                   5.983e-10         25.0000        1                 
 173               8.483e-10        1.032e-09        4.027e-10        
                   4.207e-10         25.0000        1                 
 174               2.416e-09        3.602e-09        6.678e-10        
                   1.243e-09         25.0000        1                 
 175               8.700e-10        7.963e-10        4.422e-10        
                   4.570e-10         25.0000        1                 
 176               1.497e-09        9.040e-10        6.471e-10        
                   7.553e-10         25.0000        1                 
 177               2.344e-09        3.041e-09        6.889e-10        
                   1.236e-09         25.0000        1                 
 178               1.058e-09        1.464e-09        4.310e-10        
                   5.078e-10         25.0000        1                 
 179               1.866e-09        1.164e-09        7.311e-10        
                   9.420e-10         25.0000        1                 
 180               2.200e-09        3.148e-09        6.396e-10        
                   1.140e-09         25.0000        1                 
 181               1.347e-09        1.257e-09        5.397e-10        
                   7.070e-10         25.0000        1                 
 182               2.858e-09        1.157e-09        1.141e-09        
                   1.312e-09         25.0000        1                 
 183               1.138e-09        1.284e-09        4.737e-10        
                   5.880e-10         25.0000        1                 
 184               1.406e-09        1.338e-09        5.535e-10        
                   7.482e-10         25.0000        1                 
 185               1.768e-09        1.629e-09        6.392e-10        
                   9.393e-10         25.0000        1                 
 186               2.242e-09        1.759e-09        7.758e-10        
                   1.178e-09         25.0000        1                 
 187               1.494e-09        6.144e-10        7.381e-10        
                   6.783e-10         25.0000        1                 
 188               1.556e-09        5.948e-10        7.829e-10        
                   6.847e-10         25.0000        1                 
 189               1.191e-09        7.263e-10        5.681e-10        
                   6.027e-10         25.0000        1                 
 190               2.387e-09        3.585e-09        6.663e-10        
                   1.240e-09         25.0000        1                 
 191               1.407e-09        9.971e-10        5.979e-10        
                   7.309e-10         25.0000        1                 
 192               2.427e-09        2.023e-09        8.057e-10        
                   1.281e-09         25.0000        1                 
 193               2.307e-09        1.727e-09        8.008e-10        
                   1.207e-09         25.0000        1                 
 194               8.108e-10        7.935e-10        4.158e-10        
                   4.125e-10         25.0000        1                 
 195               8.745e-10        5.902e-10        4.691e-10        
                   4.163e-10         25.0000        1                 
 196               2.670e-09        3.996e-09        7.060e-10        
                   1.369e-09         25.0000        1                 
 197               1.344e-09        1.385e-09        5.259e-10        
                   6.979e-10         25.0000        1                 
 198               1.218e-09        6.317e-10        6.033e-10        
                   5.947e-10         25.0000        1                 
 199               1.105e-09        1.795e-09        4.209e-10        
                   5.023e-10         25.0000        1                 
 200               1.710e-09        7.885e-10        7.600e-10        
                   8.159e-10         25.0000        1                 
 201               8.138e-10        6.844e-10        4.372e-10        
                   4.316e-10         25.0000        1                 
 202               2.068e-09        1.195e-09        7.962e-10        
                   1.036e-09         25.0000        1                 
 203               1.425e-09        1.610e-09        5.316e-10        
                   7.402e-10         25.0000        1                 
 204               1.467e-09        2.003e-09        5.068e-10        
                   7.217e-10         25.0000        1                 
 205               8.030e-10        6.374e-10        4.425e-10        
                   4.326e-10         25.0000        1                 
 206               1.659e-09        1.083e-09        6.737e-10        
                   8.480e-10         25.0000        1                 
 207               1.322e-09        1.590e-09        5.017e-10        
                   6.750e-10         25.0000        1                 
 208               1.104e-09        7.609e-10        5.277e-10        
                   5.628e-10         25.0000        1                 
 209               8.536e-10        9.072e-10        4.228e-10        
                   4.445e-10         25.0000        1                 
 210               1.611e-09        1.117e-09        6.429e-10        
                   8.312e-10         25.0000        1                 
 211               1.801e-09        3.371e-09        5.082e-10        
                   8.108e-10         25.0000        1                 
 212               6.022e-10        5.765e-10        3.512e-10        
                   3.042e-10         25.0000        1                 
 213               1.449e-09        9.332e-10        6.229e-10        
                   7.298e-10         25.0000        1                 
 214               2.897e-09        2.735e-09        8.886e-10        
                   1.558e-09         25.0000        1                 
 215               1.530e-09        1.165e-09        6.135e-10        
                   7.924e-10         25.0000        1                 
 216               1.228e-09        1.905e-09        4.532e-10        
                   5.900e-10         25.0000        1                 
 217               9.027e-10        1.023e-09        4.305e-10        
                   4.713e-10         25.0000        1                 
 218               8.728e-10        8.088e-10        4.393e-10        
                   4.563e-10         25.0000        1                 
 219               1.617e-09        7.621e-10        7.323e-10        
                   7.651e-10         25.0000        1                 
 220               1.209e-09        1.118e-09        5.136e-10        
                   6.324e-10         25.0000        1                 
 221               8.094e-10        6.176e-10        4.429e-10        
                   4.087e-10         25.0000        1                 
 222               1.248e-09        1.172e-09        5.185e-10        
                   6.515e-10         25.0000        1                 
 223               1.248e-09        1.108e-09        5.285e-10        
                   6.590e-10         25.0000        1                 
 224               1.993e-09        1.065e-09        7.982e-10        
                   9.842e-10         25.0000        1                 
 225               1.170e-09        5.742e-10        6.014e-10        
                   5.598e-10         25.0000        1                 
 226               2.171e-09        1.130e-09        8.531e-10        
                   1.065e-09         25.0000        1                 
 227               8.502e-10        4.596e-10        4.951e-10        
                   4.157e-10         25.0000        1                 
 228               1.123e-09        1.190e-09        4.766e-10        
                   5.757e-10         25.0000        1                 
 229               1.273e-09        9.024e-10        5.650e-10        
                   6.642e-10         25.0000        1                 
 230               1.181e-09        7.027e-10        5.691e-10        
                   5.947e-10         25.0000        1                 
 231               2.206e-09        9.363e-10        9.322e-10        
                   1.018e-09         25.0000        1                 
 232               3.039e-09        8.718e-10        1.392e-09        
                   1.241e-09         25.0000        1                 
 233               1.005e-09        1.297e-09        4.281e-10        
                   4.929e-10         25.0000        1                 
 234               1.127e-09        1.524e-09        4.479e-10        
                   5.535e-10         25.0000        1                 
 235               2.610e-09        8.221e-10        1.192e-09        
                   1.098e-09         25.0000        1                 
 236               8.586e-10        7.184e-10        4.478e-10        
                   4.530e-10         25.0000        1                 
 237               1.462e-09        1.028e-09        6.120e-10        
                   7.585e-10         25.0000        1                 
 238               1.600e-09        9.102e-10        6.829e-10        
                   7.992e-10         25.0000        1                 
 239               1.582e-09        1.005e-09        6.565e-10        
                   8.068e-10         25.0000        1                 
 240               2.115e-09        1.571e-09        7.532e-10        
                   1.102e-09         25.0000        1                 
 241               2.496e-09        3.163e-09        7.292e-10        
                   1.329e-09         25.0000        1                 
 242               1.421e-09        1.025e-09        5.959e-10        
                   7.370e-10         25.0000        1                 
 243               1.627e-09        6.053e-10        8.133e-10        
                   7.119e-10         25.0000        1                 
 244               2.723e-09        1.426e-09        9.993e-10        
                   1.334e-09         25.0000        1                 
 245               1.511e-09        6.906e-10        7.109e-10        
                   7.142e-10         25.0000        1                 
 246               1.872e-09        1.502e-09        6.820e-10        
                   9.811e-10         25.0000        1                 
 247               1.224e-09        1.019e-09        5.310e-10        
                   6.392e-10         25.0000        1                 
 248               1.858e-09        1.192e-09        7.230e-10        
                   9.480e-10         25.0000        1                 
 249               9.233e-10        7.732e-10        4.626e-10        
                   4.860e-10         25.0000        1                 
 250               2.388e-09        1.509e-09        8.550e-10        
                   1.220e-09         25.0000        1                 
 251               8.184e-10        6.498e-10        4.437e-10        
                   4.295e-10         25.0000        1                 
 252               1.071e-09        1.013e-09        4.808e-10        
                   5.562e-10         25.0000        1                 
 253               8.272e-10        1.034e-09        3.901e-10        
                   4.063e-10         25.0000        1                 
 254               1.204e-09        8.858e-10        5.425e-10        
                   6.238e-10         25.0000        1                 
 255               1.203e-09        8.634e-10        5.466e-10        
                   6.227e-10         25.0000        1                 
 256               3.686e-09        2.001e-09        1.244e-09        
                   1.815e-09         25.0000        1                 
 257               7.516e-10        7.661e-10        3.945e-10        
                   3.778e-10         25.0000        1                 
 258               2.150e-09        2.079e-09        7.094e-10        
                   1.141e-09         25.0000        1                 
 259               2.180e-09        3.955e-09        5.820e-10        
                   1.050e-09         25.0000        1                 
 260               1.581e-09        1.115e-09        6.404e-10        
                   8.123e-10         25.0000        1                 
 261               8.626e-10        7.058e-10        4.503e-10        
                   4.545e-10         25.0000        1                 
 262               2.132e-09        7.744e-10        9.745e-10        
                   9.337e-10         25.0000        1                 
 263               1.188e-09        5.503e-10        6.181e-10        
                   5.504e-10         25.0000        1                 
 264               1.640e-09        1.343e-09        6.237e-10        
                   8.570e-10         25.0000        1                 
 265               5.239e-09        1.225e-09        2.307e-09        
                   2.037e-09         25.0000        1                 
 266               2.895e-09        1.529e-09        1.041e-09        
                   1.423e-09         25.0000        1                 
 267               1.069e-09        8.955e-10        4.963e-10        
                   5.617e-10         25.0000        1                 
 268               1.801e-09        1.433e-09        6.696e-10        
                   9.504e-10         25.0000        1                 
 269               7.103e-10        8.104e-10        3.657e-10        
                   3.531e-10         25.0000        1                 
 270               1.235e-09        1.448e-09        4.872e-10        
                   6.320e-10         25.0000        1                 
 271               1.247e-09        1.559e-09        4.835e-10        
                   6.342e-10         25.0000        1                 
 272               5.141e-09        2.160e-09        1.777e-09        
                   2.381e-09         25.0000        1                 
 273               8.741e-10        8.417e-10        4.351e-10        
                   4.524e-10         25.0000        1                 
 274               1.975e-09        9.209e-10        8.331e-10        
                   9.395e-10         25.0000        1                 
 275               8.842e-10        9.768e-10        4.232e-10        
                   4.480e-10         25.0000        1                 
 276               2.186e-09        1.616e-09        7.785e-10        
                   1.148e-09         25.0000        1                 
 277               2.601e-09        1.917e-09        8.743e-10        
                   1.359e-09         25.0000        1                 
 278               2.293e-09        2.716e-09        7.040e-10        
                   1.227e-09         25.0000        1                 
 279               1.132e-09        1.323e-09        4.649e-10        
                   5.718e-10         25.0000        1                 
 280               1.010e-09        6.264e-10        5.185e-10        
                   5.035e-10         25.0000        1                 
 281               2.653e-09        1.025e-09        1.096e-09        
                   1.199e-09         25.0000        1                 
 282               1.350e-09        1.031e-09        5.726e-10        
                   7.081e-10         25.0000        1                 
 283               1.824e-09        1.077e-09        7.312e-10        
                   9.179e-10         25.0000        1                 
 284               3.147e-09        1.775e-09        1.076e-09        
                   1.571e-09         25.0000        1                 
 285               1.462e-09        8.292e-10        6.480e-10        
                   7.282e-10         25.0000        1                 
 286               3.232e-09        2.591e-09        9.969e-10        
                   1.686e-09         25.0000        1                 
 287               1.334e-09        8.115e-10        6.054e-10        
                   6.810e-10         25.0000        1                 
 288               1.690e-09        8.732e-10        7.296e-10        
                   8.190e-10         25.0000        1                 
 289               1.488e-09        1.694e-09        5.497e-10        
                   7.900e-10         25.0000        1                 
 290               1.474e-09        2.396e-09        4.933e-10        
                   7.230e-10         25.0000        1                 
 291               1.735e-09        1.659e-09        6.236e-10        
                   9.189e-10         25.0000        1                 
 292               2.730e-09        2.809e-09        8.248e-10        
                   1.462e-09         25.0000        1                 
 293               1.509e-09        5.620e-10        7.782e-10        
                   6.594e-10         25.0000        1                 
 294               1.167e-09        1.943e-09        4.296e-10        
                   5.302e-10         25.0000        1                 
 295               8.378e-09        5.714e-09        2.351e-09        
                   4.175e-09         25.0000        1                 
 296               6.941e-10        6.928e-10        3.827e-10        
                   3.634e-10         25.0000        1                 
 297               7.376e-10        5.577e-10        4.274e-10        
                   3.839e-10         25.0000        1                 
 298               7.250e-10        5.853e-10        4.202e-10        
                   3.948e-10         25.0000        1                 
 299               2.025e-09        1.435e-09        7.455e-10        
                   1.051e-09         25.0000        1                 
 300               1.907e-09        1.942e-09        6.479e-10        
                   1.010e-09         25.0000        1                 
 301               1.730e-09        7.434e-10        7.894e-10        
                   8.028e-10         25.0000        1                 
 302               1.176e-09        1.614e-09        4.569e-10        
                   5.795e-10         25.0000        1                 
 303               7.675e-10        5.331e-10        4.436e-10        
                   3.970e-10         25.0000        1                 
 304               1.113e-09        7.619e-10        5.308e-10        
                   5.697e-10         25.0000        1                 
 305               2.063e-09        1.202e-09        7.942e-10        
                   1.040e-09         25.0000        1                 
 306               1.244e-09        8.680e-10        5.591e-10        
                   6.433e-10         25.0000        1                 
 307               1.842e-09        1.381e-09        6.903e-10        
                   9.693e-10         25.0000        1                 
 308               8.802e-10        7.266e-10        4.538e-10        
                   4.623e-10         25.0000        1                 
 309               1.008e-09        6.383e-10        5.156e-10        
                   5.108e-10         25.0000        1                 
 310               1.061e-09        9.308e-10        4.898e-10        
                   5.553e-10         25.0000        1                 
 311               2.074e-09        9.159e-10        8.781e-10        
                   9.677e-10         25.0000        1                 
 312               9.367e-10        1.219e-09        4.150e-10        
                   4.604e-10         25.0000        1                 
 313               7.898e-10        6.830e-10        4.263e-10        
                   4.130e-10         25.0000        1                 
 314               9.208e-10        1.010e-09        4.305e-10        
                   4.619e-10         25.0000        1                 
 315               1.016e-09        7.623e-10        4.957e-10        
                   5.289e-10         25.0000        1                 
 316               1.065e-09        8.743e-10        4.956e-10        
                   5.572e-10         25.0000        1                 
 317               1.919e-09        1.394e-09        7.122e-10        
                   9.969e-10         25.0000        1                 
 318               1.220e-09        9.915e-10        5.320e-10        
                   6.356e-10         25.0000        1                 
 319               1.366e-09        1.305e-09        5.397e-10        
                   7.106e-10         25.0000        1                 
 320               1.732e-09        1.444e-09        6.462e-10        
                   9.151e-10         25.0000        1                 
 321               7.117e-10        5.812e-10        4.130e-10        
                   3.794e-10         25.0000        1                 
 322               9.166e-10        9.210e-10        4.416e-10        
                   4.743e-10         25.0000        1                 
 323               1.615e-09        1.160e-09        6.428e-10        
                   8.451e-10         25.0000        1                 
 324               3.035e-09        2.327e-09        9.645e-10        
                   1.582e-09         25.0000        1                 
 325               2.516e-09        3.133e-09        7.283e-10        
                   1.325e-09         25.0000        1                 
 326               3.147e-09        2.930e-09        9.449e-10        
                   1.679e-09         25.0000        1                 
 327               9.963e-10        9.641e-10        4.640e-10        
                   5.254e-10         25.0000        1                 
 328               1.102e-09        6.977e-10        5.394e-10        
                   5.578e-10         25.0000        1                 
 329               2.409e-09        1.219e-09        9.236e-10        
                   1.176e-09         25.0000        1                 
 330               8.611e-10        8.364e-10        4.345e-10        
                   4.554e-10         25.0000        1                 
 331               1.832e-09        1.108e-09        7.299e-10        
                   9.267e-10         25.0000        1                 
 332               2.278e-09        1.463e-09        8.253e-10        
                   1.170e-09         25.0000        1                 
 333               1.655e-09        8.487e-10        7.181e-10        
                   8.142e-10         25.0000        1                 
 334               1.070e-09        7.438e-10        5.198e-10        
                   5.561e-10         25.0000        1                 
 335               1.212e-09        1.112e-09        5.133e-10        
                   6.325e-10         25.0000        1                 
 336               1.974e-09        1.800e-09        6.840e-10        
                   1.046e-09         25.0000        1                 
 337               1.324e-09        2.408e-09        4.415e-10        
                   5.814e-10         25.0000        1                 
 338               1.034e-09        4.969e-10        5.677e-10        
                   4.895e-10         25.0000        1                 
 339               9.495e-10        1.134e-09        4.269e-10        
                   4.742e-10         25.0000        1                 
 340               9.840e-10        1.041e-09        4.498e-10        
                   5.076e-10         25.0000        1                 
 341               1.026e-09        6.624e-10        5.181e-10        
                   5.209e-10         25.0000        1                 
 342               1.176e-09        8.078e-10        5.459e-10        
                   6.028e-10         25.0000        1                 
 343               2.003e-09        6.967e-10        9.621e-10        
                   8.525e-10         25.0000        1                 
 344               8.354e-10        5.889e-10        4.592e-10        
                   4.291e-10         25.0000        1                 
 345               1.991e-09        8.806e-10        8.515e-10        
                   9.373e-10         25.0000        1                 
 346               1.066e-09        6.725e-10        5.299e-10        
                   5.353e-10         25.0000        1                 
 347               6.938e-10        7.670e-10        3.668e-10        
                   3.557e-10         25.0000        1                 
 348               2.856e-09        1.855e-09        9.714e-10        
                   1.459e-09         25.0000        1                 
 349               1.198e-09        9.290e-10        5.329e-10        
                   6.195e-10         25.0000        1                 
 350               1.062e-09        9.486e-10        4.870e-10        
                   5.530e-10         25.0000        1                 
 351               1.216e-09        6.731e-10        5.895e-10        
                   5.998e-10         25.0000        1                 
 352               9.753e-10        8.718e-10        4.666e-10        
                   5.047e-10         25.0000        1                 
 353               2.379e-09        2.089e-09        7.914e-10        
                   1.265e-09         25.0000        1                 
 354               2.373e-09        1.406e-09        8.676e-10        
                   1.198e-09         25.0000        1                 
 355               2.106e-09        1.043e-09        8.441e-10        
                   1.022e-09         25.0000        1                 
 356               1.558e-09        9.619e-10        6.569e-10        
                   7.841e-10         25.0000        1                 
 357               1.009e-09        9.777e-10        4.626e-10        
                   5.193e-10         25.0000        1                 
 358               2.661e-09        1.352e-09        9.863e-10        
                   1.300e-09         25.0000        1                 
 359               1.344e-09        1.124e-09        5.559e-10        
                   7.069e-10         25.0000        1                 
 360               2.089e-09        1.668e-09        7.362e-10        
                   1.094e-09         25.0000        1                 
 361               1.546e-09        9.012e-10        6.657e-10        
                   7.792e-10         25.0000        1                 
 362               1.380e-09        6.334e-10        6.738e-10        
                   6.553e-10         25.0000        1                 
 363               1.168e-09        8.467e-10        5.371e-10        
                   6.043e-10         25.0000        1                 
 364               8.751e-10        4.451e-10        5.131e-10        
                   4.260e-10         25.0000        1                 
 365               1.245e-09        9.643e-10        5.454e-10        
                   6.461e-10         25.0000        1                 
 366               1.199e-09        8.823e-10        5.416e-10        
                   6.267e-10         25.0000        1                 
 367               1.227e-09        9.599e-10        5.393e-10        
                   6.387e-10         25.0000        1                 
 368               9.640e-10        6.414e-10        4.986e-10        
                   4.937e-10         25.0000        1                 
 369               6.581e-10        6.802e-10        3.609e-10        
                   3.259e-10         25.0000        1                 
 370               1.954e-09        1.126e-09        7.690e-10        
                   9.838e-10         25.0000        1                 
 371               1.072e-09        7.071e-10        5.257e-10        
                   5.422e-10         25.0000        1                 
 372               1.113e-09        7.563e-10        5.335e-10        
                   5.719e-10         25.0000        1                 
 373               1.023e-09        8.886e-10        4.812e-10        
                   5.346e-10         25.0000        1                 
 374               8.983e-10        7.127e-10        4.626e-10        
                   4.748e-10         25.0000        1                 
 375               1.276e-09        1.224e-09        5.224e-10        
                   6.725e-10         25.0000        1                 
 376               2.649e-09        1.387e-09        9.691e-10        
                   1.302e-09         25.0000        1                 
 377               8.268e-10        9.036e-10        4.122e-10        
                   4.261e-10         25.0000        1                 
 378               1.148e-09        1.155e-09        4.906e-10        
                   6.028e-10         25.0000        1                 
 379               2.786e-09        1.299e-09        1.052e-09        
                   1.334e-09         25.0000        1                 
 380               1.028e-09        9.309e-10        4.781e-10        
                   5.402e-10         25.0000        1                 
 381               7.626e-10        3.986e-10        4.723e-10        
                   3.678e-10         25.0000        1                 
 382               2.249e-09        1.865e-09        7.619e-10        
                   1.186e-09         25.0000        1                 
 383               2.449e-09        3.540e-09        6.810e-10        
                   1.270e-09         25.0000        1                 
 384               1.133e-09        1.468e-09        4.559e-10        
                   5.644e-10         25.0000        1                 
 385               1.747e-09        6.212e-10        8.684e-10        
                   7.525e-10         25.0000        1                 
 386               1.409e-09        1.168e-09        5.719e-10        
                   7.390e-10         25.0000        1                 
 387               9.525e-10        8.155e-10        4.657e-10        
                   4.955e-10         25.0000        1                 
 388               1.181e-09        5.774e-10        6.039e-10        
                   5.509e-10         25.0000        1                 
 389               7.835e-10        7.468e-10        4.149e-10        
                   4.072e-10         25.0000        1                 
 390               2.733e-09        3.238e-09        7.919e-10        
                   1.467e-09         25.0000        1                 
 391               9.206e-10        6.699e-10        4.755e-10        
                   4.662e-10         25.0000        1                 
 392               2.262e-09        1.323e-09        8.407e-10        
                   1.137e-09         25.0000        1                 
 393               8.819e-10        7.788e-10        4.486e-10        
                   4.639e-10         25.0000        1                 
 394               1.369e-09        1.008e-09        5.815e-10        
                   7.076e-10         25.0000        1                 
 395               1.730e-09        1.882e-09        6.014e-10        
                   9.148e-10         25.0000        1                 
 396               1.366e-09        9.270e-10        5.924e-10        
                   7.030e-10         25.0000        1                 
 397               1.846e-09        2.983e-09        5.495e-10        
                   9.035e-10         25.0000        1                 
 398               1.963e-09        1.875e-09        6.747e-10        
                   1.043e-09         25.0000        1                 
 399               1.907e-09        7.417e-10        8.788e-10        
                   8.526e-10         25.0000        1                 
 400               1.042e-09        8.926e-10        4.857e-10        
                   5.421e-10         25.0000        1                 
 401               1.948e-09        1.341e-09        7.328e-10        
                   1.010e-09         25.0000        1                 
 402               1.238e-09        1.567e-09        4.787e-10        
                   6.234e-10         25.0000        1                 
 403               7.590e-10        6.498e-10        4.207e-10        
                   3.999e-10         25.0000        1                 
 404               1.027e-09        1.318e-09        4.343e-10        
                   5.052e-10         25.0000        1                 
 405               2.011e-09        1.748e-09        6.967e-10        
                   1.051e-09         25.0000        1                 
 406               8.218e-10        7.723e-10        4.256e-10        
                   4.241e-10         25.0000        1                 
 407               2.948e-09        2.115e-09        9.600e-10        
                   1.523e-09         25.0000        1                 
 408               1.320e-09        9.815e-10        5.685e-10        
                   6.832e-10         25.0000        1                 
 409               2.424e-09        1.152e-09        9.459e-10        
                   1.167e-09         25.0000        1                 
 410               8.615e-10        1.058e-09        4.053e-10        
                   4.301e-10         25.0000        1                 
 411               2.846e-09        2.875e-09        8.602e-10        
                   1.539e-09         25.0000        1                 
 412               8.231e-10        6.063e-10        4.509e-10        
                   4.233e-10         25.0000        1                 
 413               2.086e-09        1.204e-09        7.999e-10        
                   1.045e-09         25.0000        1                 
 414               1.323e-09        1.136e-09        5.470e-10        
                   6.923e-10         25.0000        1                 
 415               1.781e-09        1.594e-09        6.473e-10        
                   9.449e-10         25.0000        1                 
 416               1.014e-09        7.374e-10        4.994e-10        
                   5.215e-10         25.0000        1                 
 417               2.268e-09        1.601e-09        7.985e-10        
                   1.177e-09         25.0000        1                 
 418               1.342e-09        1.380e-09        5.226e-10        
                   6.939e-10         25.0000        1                 
 419               7.278e-10        6.272e-10        4.072e-10        
                   3.674e-10         25.0000        1                 
 420               1.524e-09        7.159e-10        7.097e-10        
                   7.144e-10         25.0000        1                 
 421               1.915e-09        2.599e-09        5.934e-10        
                   9.799e-10         25.0000        1                 
 422               2.701e-09        7.661e-10        1.309e-09        
                   1.082e-09         25.0000        1                 
 423               9.805e-10        5.517e-10        5.266e-10        
                   4.930e-10         25.0000        1                 
 424               7.595e-10        7.985e-10        3.948e-10        
                   3.887e-10         25.0000        1                 
 425               1.062e-09        5.612e-10        5.577e-10        
                   5.186e-10         25.0000        1                 
 426               1.427e-09        1.092e-09        5.886e-10        
                   7.456e-10         25.0000        1                 
 427               1.293e-09        1.010e-09        5.566e-10        
                   6.771e-10         25.0000        1                 
 428               5.747e-10        6.907e-10        2.923e-10        
                   2.364e-10         25.0000        1                 
 429               3.140e-09        2.613e-09        9.730e-10        
                   1.658e-09         25.0000        1                 
 430               1.063e-09        7.770e-10        5.107e-10        
                   5.425e-10         25.0000        1                 
 431               1.900e-09        1.994e-09        6.432e-10        
                   1.009e-09         25.0000        1                 
 432               4.080e-09        1.476e-09        1.527e-09        
                   1.834e-09         25.0000        1                 
 433               6.714e-10        6.198e-10        3.838e-10        
                   3.475e-10         25.0000        1                 
 434               1.647e-09        1.997e-09        5.661e-10        
                   8.569e-10         25.0000        1                 
 435               2.373e-09        1.685e-09        8.279e-10        
                   1.233e-09         25.0000        1                 
 436               1.164e-09        1.124e-09        4.987e-10        
                   6.037e-10         25.0000        1                 
 437               1.839e-09        2.178e-09        6.112e-10        
                   9.731e-10         25.0000        1                 
 438               8.009e-10        5.285e-10        4.580e-10        
                   4.125e-10         25.0000        1                 
 439               9.140e-10        8.530e-10        4.476e-10        
                   4.684e-10         25.0000        1                 
 440               1.817e-09        1.774e-09        6.342e-10        
                   9.551e-10         25.0000        1                 
 441               1.334e-09        7.662e-10        6.146e-10        
                   6.578e-10         25.0000        1                 
 442               2.106e-09        1.275e-09        7.950e-10        
                   1.065e-09         25.0000        1                 
 443               9.069e-10        6.084e-10        4.828e-10        
                   4.627e-10         25.0000        1                 
 444               1.348e-09        9.338e-10        5.847e-10        
                   6.942e-10         25.0000        1                 
 445               8.342e-10        8.861e-10        4.156e-10        
                   4.265e-10         25.0000        1                 
 446               4.458e-09        4.467e-09        1.195e-09        
                   2.361e-09         25.0000        1                 
 447               1.772e-09        1.140e-09        6.997e-10        
                   9.064e-10         25.0000        1                 
 448               7.703e-10        9.908e-10        3.720e-10        
                   3.811e-10         25.0000        1                 
 449               1.202e-09        7.991e-10        5.569e-10        
                   6.104e-10         25.0000        1                 
 450               1.311e-09        1.207e-09        5.339e-10        
                   6.873e-10         25.0000        1                 
 451               1.359e-09        1.056e-09        5.677e-10        
                   7.088e-10         25.0000        1                 
 452               2.100e-09        2.195e-09        6.846e-10        
                   1.113e-09         25.0000        1                 
 453               1.176e-09        1.089e-09        5.077e-10        
                   6.169e-10         25.0000        1                 
 454               2.411e-09        3.608e-09        6.599e-10        
                   1.222e-09         25.0000        1                 
 455               1.128e-09        1.076e-09        4.936e-10        
                   5.894e-10         25.0000        1                 
 456               1.505e-09        8.646e-10        6.568e-10        
                   7.526e-10         25.0000        1                 
 457               1.219e-09        7.577e-10        5.711e-10        
                   6.147e-10         25.0000        1                 
 458               2.409e-09        1.237e-09        9.173e-10        
                   1.180e-09         25.0000        1                 
 459               2.044e-09        2.180e-09        6.653e-10        
                   1.074e-09         25.0000        1                 
 460               3.104e-09        3.038e-09        9.246e-10        
                   1.676e-09         25.0000        1                 
 461               1.960e-09        1.166e-09        7.628e-10        
                   9.973e-10         25.0000        1                 
 462               1.646e-09        1.309e-09        6.332e-10        
                   8.674e-10         25.0000        1                 
 463               1.854e-09        1.807e-09        6.406e-10        
                   9.739e-10         25.0000        1                 
 464               9.228e-10        8.304e-10        4.526e-10        
                   4.776e-10         25.0000        1                 
 465               2.973e-09        1.173e-09        1.175e-09        
                   1.358e-09         25.0000        1                 
 466               1.041e-09        6.652e-10        5.218e-10        
                   5.179e-10         25.0000        1                 
 467               1.856e-09        1.744e-09        6.544e-10        
                   9.841e-10         25.0000        1                 
 468               9.882e-10        8.231e-10        4.791e-10        
                   5.232e-10         25.0000        1                 
 469               2.740e-09        1.516e-09        9.831e-10        
                   1.364e-09         25.0000        1                 
 470               1.078e-09        1.270e-09        4.559e-10        
                   5.475e-10         25.0000        1                 
 471               1.389e-09        9.550e-10        5.933e-10        
                   7.196e-10         25.0000        1                 
 472               8.743e-10        6.238e-10        4.662e-10        
                   4.427e-10         25.0000        1                 
 473               1.215e-09        1.404e-09        4.814e-10        
                   6.151e-10         25.0000        1                 
 474               7.597e-10        6.655e-10        4.147e-10        
                   3.868e-10         25.0000        1                 
 475               1.627e-09        2.151e-09        5.489e-10        
                   8.341e-10         25.0000        1                 
 476               6.834e-10        4.671e-10        4.211e-10        
                   3.408e-10         25.0000        1                 
 477               1.449e-09        1.599e-09        5.366e-10        
                   7.465e-10         25.0000        1                 
 478               1.647e-09        2.541e-09        5.196e-10        
                   7.978e-10         25.0000        1                 
 479               1.623e-09        1.840e-09        5.706e-10        
                   8.476e-10         25.0000        1                 
 480               5.041e-10        5.900e-10        2.480e-10        
                   1.311e-10         25.0000        1                 
 481               2.171e-09        2.555e-09        6.763e-10        
                   1.152e-09         25.0000        1                 
 482               1.129e-09        8.870e-10        5.178e-10        
                   5.862e-10         25.0000        1                 
 483               9.796e-10        6.630e-10        5.003e-10        
                   5.042e-10         25.0000        1                 
 484               1.155e-09        1.508e-09        4.593e-10        
                   5.769e-10         25.0000        1                 
 485               8.981e-10        8.552e-10        4.436e-10        
                   4.743e-10         25.0000        1                 
 486               7.312e-10        5.877e-10        4.209e-10        
                   3.883e-10         25.0000        1                 
 487               1.537e-09        8.128e-10        6.827e-10        
                   7.497e-10         25.0000        1                 
 488               1.234e-09        1.081e-09        5.275e-10        
                   6.507e-10         25.0000        1                 
 489               1.933e-09        1.130e-09        7.540e-10        
                   9.753e-10         25.0000        1                 
 490               2.185e-09        2.042e-09        7.265e-10        
                   1.163e-09         25.0000        1                 
 491               1.016e-09        7.655e-10        4.967e-10        
                   5.262e-10         25.0000        1                 
 492               1.643e-09        4.381e-10        1.017e-09        
                   6.027e-10         25.0000        1                 
 493               7.815e-10        6.138e-10        4.347e-10        
                   4.081e-10         25.0000        1                 
 494               7.708e-10        6.296e-10        4.290e-10        
                   4.080e-10         25.0000        1                 
 495               1.529e-09        1.228e-09        6.058e-10        
                   8.066e-10         25.0000        1                 
 496               1.047e-09        1.042e-09        4.704e-10        
                   5.466e-10         25.0000        1                 
 497               9.856e-10        6.877e-10        4.986e-10        
                   5.125e-10         25.0000        1                 
 498               1.918e-09        1.375e-09        7.183e-10        
                   9.953e-10         25.0000        1                 
 499               9.760e-10        7.516e-10        4.846e-10        
                   5.130e-10         25.0000        1                 
 500               2.593e-09        2.343e-09        8.236e-10        
                   1.371e-09         25.0000        1                 
 501               1.564e-09        1.578e-09        5.824e-10        
                   8.373e-10         25.0000        1                 
 502               2.347e-09        1.025e-09        9.560e-10        
                   1.100e-09         25.0000        1                 
 503               4.173e-09        2.526e-09        1.333e-09        
                   2.098e-09         25.0000        1                 
 504               1.309e-09        1.261e-09        5.260e-10        
                   6.802e-10         25.0000        1                 
 505               7.870e-10        7.881e-10        4.107e-10        
                   4.083e-10         25.0000        1                 
 506               1.563e-09        1.288e-09        6.050e-10        
                   8.163e-10         25.0000        1                 
 507               1.239e-09        9.305e-10        5.504e-10        
                   6.512e-10         25.0000        1                 
 508               1.351e-09        7.701e-10        6.197e-10        
                   6.681e-10         25.0000        1                 
 509               1.009e-09        4.847e-10        5.605e-10        
                   4.802e-10         25.0000        1                 
 510               3.031e-09        2.021e-09        1.003e-09        
                   1.551e-09         25.0000        1                 
 511               9.740e-10        9.037e-10        4.630e-10        
                   5.081e-10         25.0000        1                 
 512               7.728e-10        6.951e-10        4.184e-10        
                   4.093e-10         25.0000        1                 
 513               6.616e-10        7.587e-10        3.474e-10        
                   3.162e-10         25.0000        1                 
 514               1.690e-09        2.537e-09        5.372e-10        
                   8.419e-10         25.0000        1                 
 515               7.417e-10        8.609e-10        3.802e-10        
                   3.813e-10         25.0000        1                 
 516               1.509e-09        9.424e-10        6.420e-10        
                   7.679e-10         25.0000        1                 
 517               1.967e-09        8.974e-10        8.378e-10        
                   9.285e-10         25.0000        1                 
 518               8.534e-10        8.188e-10        4.328e-10        
                   4.479e-10         25.0000        1                 
 519               2.298e-09        1.608e-09        8.137e-10        
                   1.186e-09         25.0000        1                 
 520               2.494e-09        1.981e-09        8.331e-10        
                   1.312e-09         25.0000        1                 
 521               1.141e-09        1.081e-09        4.949e-10        
                   5.955e-10         25.0000        1                 
 522               1.138e-09        6.510e-10        5.639e-10        
                   5.629e-10         25.0000        1                 
 523               1.879e-09        1.344e-09        7.058e-10        
                   9.785e-10         25.0000        1                 
 524               1.233e-09        1.160e-09        5.165e-10        
                   6.493e-10         25.0000        1                 
 525               2.421e-09        1.086e-09        9.609e-10        
                   1.150e-09         25.0000        1                 
 526               1.122e-09        1.636e-09        4.412e-10        
                   5.437e-10         25.0000        1                 
 527               1.810e-09        7.252e-10        8.411e-10        
                   8.108e-10         25.0000        1                 
 528               8.516e-10        8.663e-10        4.230e-10        
                   4.319e-10         25.0000        1                 
 529               1.643e-09        1.402e-09        6.222e-10        
                   8.649e-10         25.0000        1                 
 530               1.090e-09        1.467e-09        4.406e-10        
                   5.308e-10         25.0000        1                 
 531               1.798e-09        1.135e-09        7.113e-10        
                   9.146e-10         25.0000        1                 
 532               1.705e-09        7.360e-10        7.835e-10        
                   7.866e-10         25.0000        1                 
 533               9.693e-10        1.163e-09        4.321e-10        
                   4.847e-10         25.0000        1                 
 534               8.701e-10        7.622e-10        4.461e-10        
                   4.582e-10         25.0000        1                 
 535               1.104e-09        1.035e-09        4.908e-10        
                   5.813e-10         25.0000        1                 
 536               7.710e-10        8.845e-10        3.877e-10        
                   3.828e-10         25.0000        1                 
 537               9.994e-09        2.847e-09        3.665e-09        
                   4.120e-09         25.0000        1                 
 538               1.219e-09        1.056e-09        5.252e-10        
                   6.456e-10         25.0000        1                 
 539               3.001e-09        8.909e-10        1.354e-09        
                   1.243e-09         25.0000        1                 
 540               1.533e-09        1.934e-09        5.375e-10        
                   7.914e-10         25.0000        1                 
 541               2.417e-09        2.261e-09        7.752e-10        
                   1.284e-09         25.0000        1                 
 542               1.459e-09        7.388e-10        6.731e-10        
                   7.007e-10         25.0000        1                 
 543               3.323e-09        1.641e-09        1.182e-09        
                   1.612e-09         25.0000        1                 
 544               1.405e-09        1.492e-09        5.398e-10        
                   7.463e-10         25.0000        1                 
 545               1.271e-09        9.591e-10        5.542e-10        
                   6.566e-10         25.0000        1                 
 546               1.022e-09        6.481e-10        5.186e-10        
                   5.141e-10         25.0000        1                 
 547               1.049e-09        7.502e-10        5.103e-10        
                   5.347e-10         25.0000        1                 
 548               1.964e-09        1.272e-09        7.433e-10        
                   1.008e-09         25.0000        1                 
 549               2.161e-09        1.140e-09        8.462e-10        
                   1.062e-09         25.0000        1                 
 550               2.089e-09        1.043e-09        8.429e-10        
                   1.018e-09         25.0000        1                 
 551               1.100e-09        8.720e-10        5.097e-10        
                   5.751e-10         25.0000        1                 
 552               8.411e-10        6.479e-10        4.502e-10        
                   4.304e-10         25.0000        1                 
 553               2.155e-09        5.583e-10        1.213e-09        
                   7.974e-10         25.0000        1                 
 554               8.745e-10        1.134e-09        3.992e-10        
                   4.263e-10         25.0000        1                 
 555               1.894e-09        9.440e-10        7.899e-10        
                   9.166e-10         25.0000        1                 
 556               2.664e-09        1.436e-09        9.716e-10        
                   1.321e-09         25.0000        1                 
 557               1.739e-09        1.573e-09        6.314e-10        
                   9.185e-10         25.0000        1                 
 558               1.133e-09        8.969e-10        5.167e-10        
                   5.903e-10         25.0000        1                 
 559               1.619e-09        1.646e-09        5.874e-10        
                   8.535e-10         25.0000        1                 
 560               3.218e-09        1.826e-09        1.099e-09        
                   1.607e-09         25.0000        1                 
 561               2.133e-09        1.272e-09        8.016e-10        
                   1.083e-09         25.0000        1                 
 562               1.107e-09        8.858e-10        5.098e-10        
[...]
                   3.558e-10         25.0000        1                 
 4861              1.060e-09        9.354e-10        4.868e-10        
                   5.558e-10         25.0000        1                 
 4862              8.849e-10        7.723e-10        4.466e-10        
                   4.533e-10         25.0000        1                 
 4863              1.674e-09        1.538e-09        6.177e-10        
                   8.881e-10         25.0000        1                 
 4864              1.486e-09        1.580e-09        5.520e-10        
                   7.746e-10         25.0000        1                 
 4865              1.921e-09        7.303e-10        8.903e-10        
                   8.541e-10         25.0000        1                 
 4866              1.673e-09        4.256e-10        1.061e-09        
                   5.858e-10         25.0000        1                 
 4867              1.322e-09        6.463e-10        6.435e-10        
                   6.281e-10         25.0000        1                 
 4868              1.595e-09        1.480e-09        5.938e-10        
                   8.349e-10         25.0000        1                 
 4869              4.689e-09        1.496e-09        1.802e-09        
                   2.028e-09         25.0000        1                 
 4870              1.792e-09        1.489e-09        6.623e-10        
                   9.454e-10         25.0000        1                 
 4871              1.356e-09        8.610e-10        6.035e-10        
                   6.894e-10         25.0000        1                 
 4872              8.751e-10        4.933e-10        4.968e-10        
                   4.340e-10         25.0000        1                 
 4873              3.397e-09        2.240e-09        1.086e-09        
                   1.725e-09         25.0000        1                 
 4874              1.594e-09        9.035e-10        6.826e-10        
                   7.888e-10         25.0000        1                 
 4875              8.315e-10        8.507e-10        4.206e-10        
                   4.347e-10         25.0000        1                 
 4876              1.926e-09        8.233e-10        8.506e-10        
                   8.865e-10         25.0000        1                 
 4877              1.188e-09        1.043e-09        5.127e-10        
                   6.089e-10         25.0000        1                 
 4878              1.134e-09        6.161e-10        5.724e-10        
                   5.621e-10         25.0000        1                 
 4879              2.774e-09        1.857e-09        9.387e-10        
                   1.429e-09         25.0000        1                 
 4880              1.702e-09        1.815e-09        5.985e-10        
                   8.969e-10         25.0000        1                 
 4881              2.753e-09        1.272e-09        1.050e-09        
                   1.317e-09         25.0000        1                 
 4882              8.452e-10        5.957e-10        4.616e-10        
                   4.374e-10         25.0000        1                 
 4883              2.220e-09        1.465e-09        8.076e-10        
                   1.140e-09         25.0000        1                 
 4884              2.607e-09        2.074e-09        8.589e-10        
                   1.368e-09         25.0000        1                 
 4885              1.439e-09        1.010e-09        6.049e-10        
                   7.469e-10         25.0000        1                 
 4886              6.711e-10        5.799e-10        3.921e-10        
                   3.524e-10         25.0000        1                 
 4887              1.573e-09        1.459e-09        5.939e-10        
                   8.340e-10         25.0000        1                 
 4888              7.012e-10        6.764e-10        3.910e-10        
                   3.696e-10         25.0000        1                 
 4889              1.402e-09        1.227e-09        5.629e-10        
                   7.353e-10         25.0000        1                 
 4890              2.756e-09        5.645e-10        1.669e-09        
                   9.225e-10         25.0000        1                 
 4891              1.109e-09        9.159e-10        5.057e-10        
                   5.798e-10         25.0000        1                 
 4892              8.240e-10        6.566e-10        4.456e-10        
                   4.390e-10         25.0000        1                 
 4893              3.265e-09        1.119e-09        1.333e-09        
                   1.434e-09         25.0000        1                 
 4894              1.750e-09        1.277e-09        6.747e-10        
                   9.073e-10         25.0000        1                 
 4895              2.092e-09        7.141e-10        9.961e-10        
                   8.909e-10         25.0000        1                 
 4896              2.458e-09        1.805e-09        8.410e-10        
                   1.280e-09         25.0000        1                 
 4897              1.126e-09        1.330e-09        4.672e-10        
                   5.778e-10         25.0000        1                 
 4898              9.109e-10        5.167e-10        5.048e-10        
                   4.473e-10         25.0000        1                 
 4899              1.266e-09        1.223e-09        5.188e-10        
                   6.574e-10         25.0000        1                 
 4900              1.065e-09        8.624e-10        4.965e-10        
                   5.486e-10         25.0000        1                 
 4901              1.392e-09        8.636e-10        6.166e-10        
                   7.071e-10         25.0000        1                 
 4902              1.033e-09        8.356e-10        4.899e-10        
                   5.363e-10         25.0000        1                 
 4903              3.448e-09        1.477e-09        1.284e-09        
                   1.612e-09         25.0000        1                 
 4904              1.110e-09        6.019e-10        5.659e-10        
                   5.472e-10         25.0000        1                 
 4905              1.070e-09        8.106e-10        5.088e-10        
                   5.525e-10         25.0000        1                 
 4906              1.641e-09        8.633e-10        7.109e-10        
                   8.004e-10         25.0000        1                 
 4907              8.517e-10        8.793e-10        4.227e-10        
                   4.389e-10         25.0000        1                 
 4908              3.252e-09        2.078e-09        1.070e-09        
                   1.655e-09         25.0000        1                 
 4909              7.552e-10        8.254e-10        3.898e-10        
                   3.833e-10         25.0000        1                 
 4910              1.904e-09        1.153e-09        7.457e-10        
                   9.673e-10         25.0000        1                 
 4911              1.618e-09        1.087e-09        6.553e-10        
                   8.282e-10         25.0000        1                 
 4912              2.688e-09        3.109e-09        7.772e-10        
                   1.422e-09         25.0000        1                 
 4913              2.577e-09        1.533e-09        9.152e-10        
                   1.301e-09         25.0000        1                 
 4914              1.120e-09        8.683e-10        5.168e-10        
                   5.854e-10         25.0000        1                 
 4915              3.322e-09        4.793e-09        8.418e-10        
                   1.749e-09         25.0000        1                 
 4916              1.032e-09        8.663e-10        4.878e-10        
                   5.417e-10         25.0000        1                 
 4917              1.144e-09        1.250e-09        4.791e-10        
                   5.944e-10         25.0000        1                 
 4918              9.491e-09        5.921e-09        2.714e-09        
                   4.694e-09         25.0000        1                 
 4919              7.470e-10        6.712e-10        4.116e-10        
                   3.922e-10         25.0000        1                 
 4920              8.882e-10        6.242e-10        4.742e-10        
                   4.629e-10         25.0000        1                 
 4921              9.500e-10        6.986e-10        4.822e-10        
                   4.872e-10         25.0000        1                 
 4922              1.437e-09        1.112e-09        5.901e-10        
                   7.516e-10         25.0000        1                 
 4923              1.149e-09        1.198e-09        4.849e-10        
                   5.986e-10         25.0000        1                 
 4924              1.583e-09        1.276e-09        6.130e-10        
                   8.282e-10         25.0000        1                 
 4925              2.234e-09        2.145e-09        7.255e-10        
                   1.178e-09         25.0000        1                 
 4926              1.916e-09        8.040e-10        8.473e-10        
                   8.863e-10         25.0000        1                 
 4927              1.193e-09        6.581e-10        5.840e-10        
                   5.855e-10         25.0000        1                 
 4928              1.476e-09        1.877e-09        5.240e-10        
                   7.549e-10         25.0000        1                 
 4929              1.133e-09        1.357e-09        4.684e-10        
                   5.830e-10         25.0000        1                 
 4930              1.214e-09        1.375e-09        4.877e-10        
                   6.247e-10         25.0000        1                 
 4931              9.013e-10        4.729e-10        5.130e-10        
                   4.337e-10         25.0000        1                 
 4932              9.648e-10        6.562e-10        4.970e-10        
                   4.988e-10         25.0000        1                 
 4933              5.621e-09        2.057e-09        1.989e-09        
                   2.503e-09         25.0000        1                 
 4934              1.422e-09        1.868e-09        5.097e-10        
                   7.204e-10         25.0000        1                 
 4935              1.849e-09        8.383e-10        8.075e-10        
                   8.682e-10         25.0000        1                 
 4936              1.927e-09        1.417e-09        7.112e-10        
                   1.002e-09         25.0000        1                 
 4937              1.313e-09        1.076e-09        5.514e-10        
                   6.852e-10         25.0000        1                 
 4938              1.523e-09        1.203e-09        6.063e-10        
                   7.893e-10         25.0000        1                 
 4939              1.685e-09        1.249e-09        6.523e-10        
                   8.823e-10         25.0000        1                 
 4940              1.639e-09        1.492e-09        6.122e-10        
                   8.714e-10         25.0000        1                 
 4941              9.894e-10        1.350e-09        4.222e-10        
                   4.848e-10         25.0000        1                 
 4942              8.232e-10        9.644e-10        4.022e-10        
                   4.163e-10         25.0000        1                 
 4943              1.551e-09        9.449e-10        6.566e-10        
                   7.839e-10         25.0000        1                 
 4944              2.768e-09        2.176e-09        8.953e-10        
                   1.453e-09         25.0000        1                 
 4945              1.354e-09        1.483e-09        5.229e-10        
                   7.081e-10         25.0000        1                 
 4946              9.355e-10        7.966e-10        4.649e-10        
                   4.961e-10         25.0000        1                 
 4947              1.856e-09        1.085e-09        7.438e-10        
                   9.345e-10         25.0000        1                 
 4948              1.669e-09        1.394e-09        6.281e-10        
                   8.766e-10         25.0000        1                 
 4949              9.896e-10        7.772e-10        4.831e-10        
                   5.058e-10         25.0000        1                 
 4950              3.433e-09        8.760e-10        1.655e-09        
                   1.334e-09         25.0000        1                 
 4951              1.330e-09        1.043e-09        5.636e-10        
                   6.974e-10         25.0000        1                 
 4952              1.536e-09        1.736e-09        5.542e-10        
                   7.970e-10         25.0000        1                 
 4953              1.846e-09        1.654e-09        6.570e-10        
                   9.755e-10         25.0000        1                 
 4954              2.532e-09        1.817e-09        8.644e-10        
                   1.319e-09         25.0000        1                 
 4955              1.067e-09        1.286e-09        4.505e-10        
                   5.377e-10         25.0000        1                 
 4956              1.038e-09        8.241e-10        4.951e-10        
                   5.426e-10         25.0000        1                 
 4957              5.581e-10        5.364e-10        3.269e-10        
                   2.635e-10         25.0000        1                 
 4958              1.322e-09        8.005e-10        6.013e-10        
                   6.632e-10         25.0000        1                 
 4959              1.263e-09        9.137e-10        5.580e-10        
                   6.592e-10         25.0000        1                 
 4960              9.975e-10        5.711e-10        5.269e-10        
                   4.918e-10         25.0000        1                 
 4961              6.062e-09        9.118e-10        3.479e-09        
                   1.907e-09         25.0000        1                 
 4962              9.282e-10        1.265e-09        4.048e-10        
                   4.433e-10         25.0000        1                 
 4963              1.760e-09        2.212e-09        5.897e-10        
                   9.311e-10         25.0000        1                 
 4964              6.085e-10        4.688e-10        3.839e-10        
                   3.087e-10         25.0000        1                 
 4965              1.567e-09        1.713e-09        5.658e-10        
                   8.209e-10         25.0000        1                 
 4966              7.928e-10        5.893e-10        4.420e-10        
                   4.056e-10         25.0000        1                 
 4967              1.235e-09        9.453e-10        5.460e-10        
                   6.443e-10         25.0000        1                 
 4968              8.220e-10        6.150e-10        4.502e-10        
                   4.264e-10         25.0000        1                 
 4969              9.692e-10        8.226e-10        4.731e-10        
                   5.155e-10         25.0000        1                 
 4970              1.836e-09        8.959e-10        7.788e-10        
                   8.883e-10         25.0000        1                 
 4971              6.309e-10        5.459e-10        3.774e-10        
                   3.240e-10         25.0000        1                 
 4972              1.084e-09        9.272e-10        4.979e-10        
                   5.718e-10         25.0000        1                 
 4973              1.952e-09        1.324e-09        7.365e-10        
                   1.005e-09         25.0000        1                 
 4974              1.782e-09        1.547e-09        6.482e-10        
                   9.390e-10         25.0000        1                 
 4975              8.731e-10        6.976e-10        4.559e-10        
                   4.533e-10         25.0000        1                 
 4976              1.083e-09        6.044e-10        5.535e-10        
                   5.284e-10         25.0000        1                 
 4977              1.431e-09        1.650e-09        5.321e-10        
                   7.472e-10         25.0000        1                 
 4978              1.662e-09        2.668e-09        5.188e-10        
                   8.043e-10         25.0000        1                 
 4979              1.579e-09        1.122e-09        6.341e-10        
                   8.130e-10         25.0000        1                 
 4980              1.306e-09        1.316e-09        5.220e-10        
                   6.867e-10         25.0000        1                 
 4981              1.790e-09        1.420e-09        6.652e-10        
                   9.415e-10         25.0000        1                 
 4982              1.246e-09        6.947e-10        5.962e-10        
                   6.138e-10         25.0000        1                 
 4983              1.503e-09        1.236e-09        5.930e-10        
                   7.873e-10         25.0000        1                 
 4984              1.092e-09        7.158e-10        5.316e-10        
                   5.558e-10         25.0000        1                 
 4985              1.201e-09        1.087e-09        5.159e-10        
                   6.286e-10         25.0000        1                 
 4986              8.341e-10        7.861e-10        4.288e-10        
                   4.292e-10         25.0000        1                 
 4987              1.575e-09        1.517e-09        5.868e-10        
                   8.254e-10         25.0000        1                 
 4988              3.353e-09        4.773e-09        8.486e-10        
                   1.760e-09         25.0000        1                 
 4989              2.443e-09        2.343e-09        7.809e-10        
                   1.308e-09         25.0000        1                 
 4990              2.273e-09        7.852e-10        1.038e-09        
                   9.823e-10         25.0000        1                 
 4991              8.680e-10        7.885e-10        4.405e-10        
                   4.525e-10         25.0000        1                 
 4992              1.016e-09        5.446e-10        5.429e-10        
                   4.977e-10         25.0000        1                 
 4993              1.114e-09        1.068e-09        4.878e-10        
                   5.835e-10         25.0000        1                 
 4994              1.005e-09        9.219e-10        4.702e-10        
                   5.244e-10         25.0000        1                 
 4995              1.683e-09        1.201e-09        6.572e-10        
                   8.720e-10         25.0000        1                 
 4996              2.148e-09        1.270e-09        8.125e-10        
                   1.081e-09         25.0000        1                 
 4997              1.370e-09        8.953e-10        5.994e-10        
                   6.951e-10         25.0000        1                 
 4998              2.449e-09        1.053e-09        9.847e-10        
                   1.147e-09         25.0000        1                 
 4999              1.054e-09        1.271e-09        4.481e-10        
                   5.302e-10         25.0000        1                 
 5000              2.242e-09        1.485e-09        8.066e-10        
                   1.153e-09         25.0000        1                 
