$DATA1 SOURCE='HSPICE' VERSION='F-2011.09 64-BIT'
.TITLE '* include model and subckts'
 index            write1           read1            write0            
                  read0            temper           alter#            
 1                   0.3500           0.3500         1.829e-05        
                   5.503e-05         25.0000        1                 
 2                   0.3499           0.3499         1.427e-05        
                   6.628e-05         25.0000        1                 
 3                   0.3500           0.3500         5.683e-05        
                   1.255e-04         25.0000        1                 
 4                   0.3500           0.3500         1.750e-05        
                   4.143e-05         25.0000        1                 
 5                   0.3499           0.3499         1.776e-05        
                   7.554e-05         25.0000        1                 
 6                   0.3500           0.3500         1.136e-05        
                   3.512e-05         25.0000        1                 
 7                   0.3499           0.3499         1.007e-05        
                   4.942e-05         25.0000        1                 
 8                   0.3498           0.3483         4.308e-06        
                   2.644e-05         25.0000        1                 
 9                   0.3499           0.3499         4.492e-06        
                   2.781e-05         25.0000        1                 
 10                  0.3500           0.3500         3.191e-05        
                   7.816e-05         25.0000        1                 
 11                  0.3497           0.3497         2.835e-06        
                   4.394e-05         25.0000        1                 
 12                  0.3500           0.3500         5.710e-05        
                   1.317e-04         25.0000        1                 
 13                  0.3499           0.3499         1.156e-05        
                   4.881e-05         25.0000        1                 
 14                  0.3499           0.3499         2.274e-05        
                   7.545e-05         25.0000        1                 
 15                  0.3498           0.3498         3.401e-06        
                   3.074e-05         25.0000        1                 
 16                  0.3500           0.3500         3.527e-05        
                   9.987e-05         25.0000        1                 
 17                  0.3500           0.3500         1.153e-05        
                   4.002e-05         25.0000        1                 
 18                  0.3499           0.3499         7.980e-06        
                   3.690e-05         25.0000        1                 
 19                  0.3500           0.3500         8.034e-06        
                   2.985e-05         25.0000        1                 
 20                  0.3499           0.3499         1.050e-05        
                   4.763e-05         25.0000        1                 
 21                  0.3499           0.3499         5.580e-06        
                   3.976e-05         25.0000        1                 
 22                  0.3499           0.3499         1.160e-05        
                   4.318e-05         25.0000        1                 
 23                  0.3500           0.3500         3.547e-05        
                   8.480e-05         25.0000        1                 
 24                  0.3499           0.3499         5.784e-06        
                   3.557e-05         25.0000        1                 
 25                  0.3500           0.3500         3.482e-05        
                   9.143e-05         25.0000        1                 
 26                  0.3499           0.3499         8.936e-06        
                   4.757e-05         25.0000        1                 
 27                  0.3500           0.3500         3.814e-05        
                   8.907e-05         25.0000        1                 
 28                  0.3496           0.3496         4.461e-06        
                   6.346e-05         25.0000        1                 
 29                  0.3500           0.3500         2.728e-05        
                   7.903e-05         25.0000        1                 
 30                  0.3498           0.3498         1.196e-05        
                   7.463e-05         25.0000        1                 
 31                  0.3499           0.3499         1.312e-05        
                   5.622e-05         25.0000        1                 
 32                  0.3499           0.3499         6.999e-06        
                   4.192e-05         25.0000        1                 
 33                  0.3499           0.3499         5.586e-06        
                   3.279e-05         25.0000        1                 
 34                  0.3500           0.3500         1.651e-05        
                   4.468e-05         25.0000        1                 
 35                  0.3499           0.3499         1.027e-05        
                   4.523e-05         25.0000        1                 
 36                  0.3498           0.3498         6.152e-06        
                   5.501e-05         25.0000        1                 
 37                  0.3499           0.3499         1.103e-05        
                   4.222e-05         25.0000        1                 
 38                  0.3496           0.3488         1.908e-06        
                   3.575e-05         25.0000        1                 
 39                  0.3499           0.3499         9.760e-06        
                   5.740e-05         25.0000        1                 
 40                  0.3500           0.3500         1.883e-05        
                   4.741e-05         25.0000        1                 
 41                  0.3496           0.3311         2.036e-05        
                   2.857e-05         25.0000        1                 
 42                  0.3499           0.3499         9.316e-06        
                   3.858e-05         25.0000        1                 
 43                  0.3499           0.3499         1.110e-05        
                   5.079e-05         25.0000        1                 
 44                  0.3498           0.3498         3.237e-06        
                   3.846e-05         25.0000        1                 
 45                  0.3500           0.3500         7.358e-06        
                   2.644e-05         25.0000        1                 
 46                  0.3500           0.3500         1.855e-05        
                   5.699e-05         25.0000        1                 
 47                  0.3500           0.3500         1.173e-05        
                   4.224e-05         25.0000        1                 
 48                  0.3500           0.3500         1.904e-05        
                   5.453e-05         25.0000        1                 
 49                  0.3499           0.3499         3.389e-06        
                   2.491e-05         25.0000        1                 
 50                  0.3499           0.3499         1.250e-05        
                   5.888e-05         25.0000        1                 
 51                  0.3500           0.3500         2.503e-05        
                   7.037e-05         25.0000        1                 
 52                  0.3499           0.3499         9.648e-06        
                   4.507e-05         25.0000        1                 
 53                  0.3500           0.3500         6.676e-06        
                   2.304e-05         25.0000        1                 
 54                  0.3500           0.3500         1.620e-05        
                   4.847e-05         25.0000        1                 
 55                  0.3499           0.3499         6.741e-06        
                   4.720e-05         25.0000        1                 
 56                  0.3500           0.3500         2.016e-05        
                   6.607e-05         25.0000        1                 
 57                  0.3496           0.3496         5.315e-06        
                   7.342e-05         25.0000        1                 
 58                  0.3499           0.3499         6.989e-06        
                   3.173e-05         25.0000        1                 
 59                  0.3499           0.3466         8.331e-06        
                   2.529e-05         25.0000        1                 
 60                  0.3499           0.3499         6.614e-06        
                   4.650e-05         25.0000        1                 
 61                  0.3500           0.3500         1.309e-05        
                   3.902e-05         25.0000        1                 
 62                  0.3498           0.3498         6.870e-06        
                   5.500e-05         25.0000        1                 
 63                  0.3499           0.3499         4.094e-06        
                   3.329e-05         25.0000        1                 
 64                  0.3498           0.3498         1.212e-05        
                   8.169e-05         25.0000        1                 
 65                  0.3499           0.3499         5.497e-06        
                   2.746e-05         25.0000        1                 
 66                  0.3498           0.3498         3.775e-06        
                   3.691e-05         25.0000        1                 
 67                  0.3499           0.3499         2.552e-05        
                   1.090e-04         25.0000        1                 
 68                  0.3499           0.3498         4.316e-06        
                   2.506e-05         25.0000        1                 
 69                  0.3499           0.3499         1.039e-05        
                   4.343e-05         25.0000        1                 
 70                  0.3500           0.3500         1.789e-05        
                   4.655e-05         25.0000        1                 
 71                  0.3499           0.3499         5.573e-06        
                   2.371e-05         25.0000        1                 
 72                  0.3500           0.3500         1.943e-05        
                   5.439e-05         25.0000        1                 
 73                  0.3499           0.3498         4.937e-06        
                   3.739e-05         25.0000        1                 
 74                  0.3500           0.3500         1.288e-05        
                   3.724e-05         25.0000        1                 
 75                  0.3499           0.3499         8.611e-06        
                   4.504e-05         25.0000        1                 
 76                  0.3496           0.3329         1.157e-05        
                   2.117e-05         25.0000        1                 
 77                  0.3500           0.3500         8.566e-06        
                   2.947e-05         25.0000        1                 
 78                  0.3500           0.3500         4.938e-05        
                   1.169e-04         25.0000        1                 
 79                  0.3498           0.3498         6.703e-06        
                   4.813e-05         25.0000        1                 
 80                  0.3499           0.3499         9.619e-06        
                   4.071e-05         25.0000        1                 
 81                  0.3499           0.3499         9.506e-06        
                   4.113e-05         25.0000        1                 
 82                  0.3500           0.3500         2.049e-05        
                   6.058e-05         25.0000        1                 
 83                  0.3499           0.3499         5.329e-06        
                   2.444e-05         25.0000        1                 
 84                  0.3499           0.3499         5.873e-06        
                   2.691e-05         25.0000        1                 
 85                  0.3500           0.3500         9.354e-06        
                   3.453e-05         25.0000        1                 
 86                  0.3499           0.3498         4.036e-06        
                   2.411e-05         25.0000        1                 
 87                  0.3499           0.3499         1.080e-05        
                   4.753e-05         25.0000        1                 
 88                  0.3499           0.3499         4.051e-06        
                   2.498e-05         25.0000        1                 
 89                  0.3500           0.3500         8.791e-06        
                   3.312e-05         25.0000        1                 
 90                  0.3498           0.3497         3.232e-06        
                   3.958e-05         25.0000        1                 
 91                  0.3500           0.3499         1.123e-05        
                   4.206e-05         25.0000        1                 
 92                  0.3500           0.3500         3.404e-05        
                   8.639e-05         25.0000        1                 
 93                  0.3500           0.3500         1.966e-05        
                   4.727e-05         25.0000        1                 
 94                  0.3500           0.3500         2.012e-05        
                   6.367e-05         25.0000        1                 
 95                  0.3499           0.3499         2.700e-05        
                   8.653e-05         25.0000        1                 
 96                  0.3499           0.3499         2.391e-05        
                   8.158e-05         25.0000        1                 
 97                  0.3498           0.3496         2.316e-06        
                   2.921e-05         25.0000        1                 
 98                  0.3499           0.3499         9.300e-06        
                   3.835e-05         25.0000        1                 
 99                  0.3500           0.3500         3.165e-05        
                   7.423e-05         25.0000        1                 
 100                 0.3480           0.2761         2.972e-04        
                   1.963e-05         25.0000        1                 
 101                 0.3499           0.3499         1.475e-05        
                   5.022e-05         25.0000        1                 
 102                 0.3499           0.3499         1.025e-05        
                   4.292e-05         25.0000        1                 
 103                 0.3499           0.3499         1.025e-05        
                   4.609e-05         25.0000        1                 
 104                 0.3499           0.3499         5.644e-06        
                   3.155e-05         25.0000        1                 
 105                 0.3500           0.3500         5.115e-05        
                   1.177e-04         25.0000        1                 
 106                 0.3499           0.3499         1.176e-05        
                   4.553e-05         25.0000        1                 
 107                 0.3499           0.3499         5.176e-06        
                   2.382e-05         25.0000        1                 
 108                 0.3500           0.3500         5.181e-05        
                   1.359e-04         25.0000        1                 
 109                 0.3499           0.3499         3.549e-06        
                   2.082e-05         25.0000        1                 
 110                 0.3500           0.3500         1.883e-05        
                   5.328e-05         25.0000        1                 
 111                 0.3500           0.3500         1.876e-05        
                   5.240e-05         25.0000        1                 
 112                 0.3500           0.3500         3.074e-05        
                   7.380e-05         25.0000        1                 
 113                 0.3499           0.3499         4.799e-06        
                   2.454e-05         25.0000        1                 
 114                 0.3499           0.3499         5.355e-06        
                   2.614e-05         25.0000        1                 
 115                 0.3499           0.3499         9.424e-06        
                   3.671e-05         25.0000        1                 
 116                 0.3500           0.3500         1.376e-05        
                   4.303e-05         25.0000        1                 
 117                 0.3498           0.3460         5.236e-06        
                   2.692e-05         25.0000        1                 
 118                 0.3497           0.3497         5.749e-06        
                   6.404e-05         25.0000        1                 
 119                 0.3500           0.3500         2.222e-05        
                   5.515e-05         25.0000        1                 
 120                 0.3500           0.3500         1.823e-05        
                   5.611e-05         25.0000        1                 
 121                 0.3499           0.3499         1.866e-05        
                   8.174e-05         25.0000        1                 
 122                 0.3498           0.3458         4.989e-06        
                   2.349e-05         25.0000        1                 
 123                 0.3499           0.3499         9.130e-06        
                   5.485e-05         25.0000        1                 
 124                 0.3500           0.3500         1.476e-05        
                   4.119e-05         25.0000        1                 
 125                 0.3499           0.3499         4.972e-06        
                   3.561e-05         25.0000        1                 
 126                 0.3499           0.3499         2.693e-05        
                   8.199e-05         25.0000        1                 
 127                 0.3497           0.3497         1.472e-05        
                   1.089e-04         25.0000        1                 
 128                 0.3500           0.3500         2.131e-05        
                   6.435e-05         25.0000        1                 
 129                 0.3500           0.3500         2.733e-05        
                   6.840e-05         25.0000        1                 
 130                 0.3498           0.3498         4.537e-06        
                   4.159e-05         25.0000        1                 
 131                 0.3500           0.3500         1.039e-05        
                   3.303e-05         25.0000        1                 
 132                 0.3499           0.3499         6.348e-06        
                   3.279e-05         25.0000        1                 
 133                 0.3500           0.3500         1.316e-05        
                   4.249e-05         25.0000        1                 
 134                 0.3500           0.3500         1.351e-05        
                   4.189e-05         25.0000        1                 
 135                 0.3499           0.3499         1.774e-05        
                   6.748e-05         25.0000        1                 
 136                 0.3499           0.3499         6.191e-06        
                   3.080e-05         25.0000        1                 
 137                 0.3500           0.3500         1.400e-05        
                   4.166e-05         25.0000        1                 
 138                 0.3500           0.3500         2.998e-05        
                   6.967e-05         25.0000        1                 
 139                 0.3499           0.3499         7.395e-06        
                   3.912e-05         25.0000        1                 
 140                 0.3500           0.3500         1.770e-05        
                   4.663e-05         25.0000        1                 
 141                 0.3499           0.3499         2.191e-05        
                   6.901e-05         25.0000        1                 
 142                 0.3498           0.3498         3.144e-06        
                   3.803e-05         25.0000        1                 
 143                 0.3500           0.3500         1.694e-05        
                   4.278e-05         25.0000        1                 
 144                 0.3499           0.3499         6.555e-06        
                   2.836e-05         25.0000        1                 
 145                 0.3500           0.3500         1.557e-05        
                   4.610e-05         25.0000        1                 
 146                 0.3499           0.3499         1.047e-05        
                   3.995e-05         25.0000        1                 
 147                 0.3498           0.3498         1.335e-05        
                   9.722e-05         25.0000        1                 
 148                 0.3499           0.3499         3.867e-05        
                   1.165e-04         25.0000        1                 
 149                 0.3499           0.3441         1.411e-05        
                   2.047e-05         25.0000        1                 
 150                 0.3500           0.3500         4.023e-05        
                   9.493e-05         25.0000        1                 
 151                 0.3499           0.3499         2.038e-05        
                   6.823e-05         25.0000        1                 
 152                 0.3500           0.3500         3.040e-05        
                   7.176e-05         25.0000        1                 
 153                 0.3499           0.3499         2.007e-05        
                   6.550e-05         25.0000        1                 
 154                 0.3488           0.2976         3.798e-04        
                   1.838e-05         25.0000        1                 
 155                 0.3498           0.3498         3.430e-06        
                   2.852e-05         25.0000        1                 
 156                 0.3500           0.3500         2.051e-05        
                   6.531e-05         25.0000        1                 
 157                 0.3498           0.3498         6.579e-06        
                   5.519e-05         25.0000        1                 
 158                 0.3499           0.3499         8.346e-06        
                   3.513e-05         25.0000        1                 
 159                 0.3500           0.3500         1.677e-05        
                   4.973e-05         25.0000        1                 
 160                 0.3499           0.3499         1.594e-05        
                   5.935e-05         25.0000        1                 
 161                 0.3500           0.3500         7.850e-06        
                   2.669e-05         25.0000        1                 
 162                 0.3498           0.3498         9.494e-06        
                   6.384e-05         25.0000        1                 
 163                 0.3499           0.3499         7.217e-06        
                   4.187e-05         25.0000        1                 
 164                 0.3499           0.3499         5.878e-06        
                   3.600e-05         25.0000        1                 
 165                 0.3499           0.3499         2.196e-05        
                   7.626e-05         25.0000        1                 
 166                 0.3498           0.3495         2.110e-06        
                   2.511e-05         25.0000        1                 
 167                 0.3500           0.3500         9.940e-06        
                   3.651e-05         25.0000        1                 
 168                 0.3499           0.3499         1.450e-05        
                   7.749e-05         25.0000        1                 
 169                 0.3499           0.3499         3.955e-06        
                   2.689e-05         25.0000        1                 
 170                 0.3500           0.3500         3.724e-05        
                   8.606e-05         25.0000        1                 
 171                 0.3499           0.3499         2.801e-05        
                   1.098e-04         25.0000        1                 
 172                 0.3499           0.3499         4.003e-06        
                   3.159e-05         25.0000        1                 
 173                 0.3497           0.3497         3.975e-06        
                   4.983e-05         25.0000        1                 
 174                 0.3498           0.3306         5.222e-05        
                   2.306e-05         25.0000        1                 
 175                 0.3499           0.3499         8.067e-06        
                   4.439e-05         25.0000        1                 
 176                 0.3500           0.3500         1.574e-05        
                   5.021e-05         25.0000        1                 
 177                 0.3499           0.3449         1.353e-05        
                   2.025e-05         25.0000        1                 
 178                 0.3498           0.3498         2.335e-06        
                   3.095e-05         25.0000        1                 
 179                 0.3499           0.3499         1.484e-05        
                   5.451e-05         25.0000        1                 
 180                 0.3499           0.3421         1.619e-05        
                   1.886e-05         25.0000        1                 
 181                 0.3499           0.3499         5.188e-06        
                   2.638e-05         25.0000        1                 
 182                 0.3500           0.3500         2.671e-05        
                   7.461e-05         25.0000        1                 
 183                 0.3499           0.3499         3.768e-06        
                   2.615e-05         25.0000        1                 
 184                 0.3499           0.3499         5.063e-06        
                   2.111e-05         25.0000        1                 
 185                 0.3499           0.3499         6.152e-06        
                   2.973e-05         25.0000        1                 
 186                 0.3500           0.3500         7.198e-06        
                   2.831e-05         25.0000        1                 
 187                 0.3500           0.3500         3.310e-05        
                   8.183e-05         25.0000        1                 
 188                 0.3500           0.3500         3.886e-05        
                   9.725e-05         25.0000        1                 
 189                 0.3500           0.3500         1.765e-05        
                   5.514e-05         25.0000        1                 
 190                 0.3498           0.3302         4.994e-05        
                   2.306e-05         25.0000        1                 
 191                 0.3500           0.3499         1.082e-05        
                   3.893e-05         25.0000        1                 
 192                 0.3499           0.3499         6.341e-06        
                   2.567e-05         25.0000        1                 
 193                 0.3500           0.3500         7.612e-06        
                   2.808e-05         25.0000        1                 
 194                 0.3498           0.3498         6.925e-06        
                   5.944e-05         25.0000        1                 
 195                 0.3498           0.3498         3.961e-05        
                   1.624e-04         25.0000        1                 
 196                 0.3498           0.3219         9.889e-05        
                   1.644e-05         25.0000        1                 
 197                 0.3499           0.3499         5.046e-06        
                   3.458e-05         25.0000        1                 
 198                 0.3500           0.3500         2.400e-05        
                   6.600e-05         25.0000        1                 
 199                 0.3496           0.3489         1.823e-06        
                   3.419e-05         25.0000        1                 
 200                 0.3500           0.3500         1.713e-05        
                   4.425e-05         25.0000        1                 
 201                 0.3499           0.3499         9.165e-06        
                   4.503e-05         25.0000        1                 
 202                 0.3500           0.3500         1.259e-05        
                   4.137e-05         25.0000        1                 
 203                 0.3499           0.3499         4.085e-06        
                   2.902e-05         25.0000        1                 
 204                 0.3498           0.3496         2.757e-06        
                   3.535e-05         25.0000        1                 
 205                 0.3499           0.3499         1.028e-05        
                   3.981e-05         25.0000        1                 
 206                 0.3499           0.3499         1.423e-05        
                   4.999e-05         25.0000        1                 
 207                 0.3498           0.3499         3.653e-06        
                   3.190e-05         25.0000        1                 
 208                 0.3499           0.3499         1.639e-05        
                   6.238e-05         25.0000        1                 
 209                 0.3499           0.3499         4.829e-06        
                   3.561e-05         25.0000        1                 
 210                 0.3500           0.3500         7.684e-06        
                   2.715e-05         25.0000        1                 
 211                 0.3498           0.3284         2.690e-05        
                   1.528e-05         25.0000        1                 
 212                 0.3498           0.3498         7.279e-06        
                   6.162e-05         25.0000        1                 
 213                 0.3499           0.3499         1.780e-05        
                   6.549e-05         25.0000        1                 
 214                 0.3499           0.3486         1.109e-05        
                   2.246e-05         25.0000        1                 
 215                 0.3499           0.3499         1.095e-05        
                   4.857e-05         25.0000        1                 
 216                 0.3497           0.3494         2.212e-06        
                   2.741e-05         25.0000        1                 
 217                 0.3499           0.3499         4.410e-06        
                   3.110e-05         25.0000        1                 
 218                 0.3499           0.3499         6.411e-06        
                   3.992e-05         25.0000        1                 
 219                 0.3500           0.3500         2.448e-05        
                   7.062e-05         25.0000        1                 
 220                 0.3499           0.3499         6.611e-06        
                   3.681e-05         25.0000        1                 
 221                 0.3498           0.3498         2.209e-05        
                   1.004e-04         25.0000        1                 
 222                 0.3499           0.3499         5.991e-06        
                   3.456e-05         25.0000        1                 
 223                 0.3499           0.3499         6.451e-06        
                   3.018e-05         25.0000        1                 
 224                 0.3500           0.3500         1.471e-05        
                   4.408e-05         25.0000        1                 
 225                 0.3500           0.3500         3.116e-05        
                   8.321e-05         25.0000        1                 
 226                 0.3500           0.3500         1.607e-05        
                   4.847e-05         25.0000        1                 
 227                 0.3499           0.3499         4.144e-05        
                   1.214e-04         25.0000        1                 
 228                 0.3499           0.3499         5.106e-06        
                   4.015e-05         25.0000        1                 
 229                 0.3500           0.3500         9.433e-06        
                   3.301e-05         25.0000        1                 
 230                 0.3500           0.3500         1.800e-05        
                   5.649e-05         25.0000        1                 
 231                 0.3500           0.3500         2.712e-05        
                   7.525e-05         25.0000        1                 
 232                 0.3500           0.3500         3.093e-05        
                   7.369e-05         25.0000        1                 
 233                 0.3498           0.3498         2.564e-06        
                   2.648e-05         25.0000        1                 
 234                 0.3498           0.3498         2.558e-06        
                   2.235e-05         25.0000        1                 
 235                 0.3500           0.3500         2.967e-05        
                   7.146e-05         25.0000        1                 
 236                 0.3499           0.3499         8.865e-06        
                   4.353e-05         25.0000        1                 
 237                 0.3500           0.3500         1.075e-05        
                   3.854e-05         25.0000        1                 
 238                 0.3500           0.3500         1.480e-05        
                   4.579e-05         25.0000        1                 
 239                 0.3500           0.3500         1.176e-05        
                   3.988e-05         25.0000        1                 
 240                 0.3500           0.3500         7.293e-06        
                   2.657e-05         25.0000        1                 
 241                 0.3499           0.3426         2.285e-05        
                   2.769e-05         25.0000        1                 
 242                 0.3500           0.3500         9.509e-06        
                   3.666e-05         25.0000        1                 
 243                 0.3500           0.3500         3.774e-05        
                   9.047e-05         25.0000        1                 
 244                 0.3500           0.3500         1.591e-05        
                   5.213e-05         25.0000        1                 
 245                 0.3500           0.3500         2.350e-05        
                   6.118e-05         25.0000        1                 
 246                 0.3499           0.3500         6.915e-06        
                   2.893e-05         25.0000        1                 
 247                 0.3499           0.3499         8.845e-06        
                   4.173e-05         25.0000        1                 
 248                 0.3500           0.3500         1.224e-05        
                   4.371e-05         25.0000        1                 
 249                 0.3499           0.3499         8.387e-06        
                   4.046e-05         25.0000        1                 
 250                 0.3500           0.3500         8.998e-06        
                   2.834e-05         25.0000        1                 
 251                 0.3499           0.3499         1.274e-05        
                   5.731e-05         25.0000        1                 
 252                 0.3499           0.3499         6.845e-06        
                   4.184e-05         25.0000        1                 
 253                 0.3497           0.3497         2.906e-06        
                   4.328e-05         25.0000        1                 
 254                 0.3499           0.3499         1.079e-05        
                   4.362e-05         25.0000        1                 
 255                 0.3499           0.3499         1.194e-05        
                   4.564e-05         25.0000        1                 
 256                 0.3500           0.3500         1.115e-05        
                   3.410e-05         25.0000        1                 
 257                 0.3497           0.3497         7.386e-06        
                   7.185e-05         25.0000        1                 
 258                 0.3499           0.3499         4.926e-06        
                   2.026e-05         25.0000        1                 
 259                 0.3496           0.3099         8.243e-05        
                   2.028e-05         25.0000        1                 
 260                 0.3499           0.3499         1.397e-05        
                   5.571e-05         25.0000        1                 
 261                 0.3499           0.3499         8.675e-06        
                   4.281e-05         25.0000        1                 
 262                 0.3500           0.3500         3.352e-05        
                   8.409e-05         25.0000        1                 
 263                 0.3500           0.3500         4.322e-05        
                   1.154e-04         25.0000        1                 
 264                 0.3499           0.3499         7.193e-06        
                   3.356e-05         25.0000        1                 
 265                 0.3500           0.3500         2.614e-05        
                   6.237e-05         25.0000        1                 
 266                 0.3500           0.3500         1.335e-05        
                   4.215e-05         25.0000        1                 
 267                 0.3499           0.3499         8.515e-06        
                   3.895e-05         25.0000        1                 
 268                 0.3500           0.3500         7.115e-06        
                   2.733e-05         25.0000        1                 
 269                 0.3497           0.3497         3.900e-06        
                   5.549e-05         25.0000        1                 
 270                 0.3499           0.3499         3.590e-06        
                   2.873e-05         25.0000        1                 
 271                 0.3498           0.3498         3.395e-06        
                   3.088e-05         25.0000        1                 
 272                 0.3500           0.3500         4.833e-05        
                   3.909e-05         25.0000        1                 
 273                 0.3499           0.3499         6.172e-06        
                   4.337e-05         25.0000        1                 
 274                 0.3500           0.3500         2.081e-05        
                   5.779e-05         25.0000        1                 
 275                 0.3498           0.3498         4.797e-06        
                   4.517e-05         25.0000        1                 
 276                 0.3500           0.3500         8.430e-06        
                   3.056e-05         25.0000        1                 
 277                 0.3500           0.3500         7.206e-06        
                   2.391e-05         25.0000        1                 
 278                 0.3499           0.3480         7.091e-06        
                   2.273e-05         25.0000        1                 
 279                 0.3498           0.3498         3.524e-06        
                   3.209e-05         25.0000        1                 
 280                 0.3499           0.3499         2.581e-05        
                   8.577e-05         25.0000        1                 
 281                 0.3500           0.3500         2.514e-05        
                   6.770e-05         25.0000        1                 
 282                 0.3499           0.3499         8.616e-06        
                   3.309e-05         25.0000        1                 
 283                 0.3500           0.3500         1.294e-05        
                   4.214e-05         25.0000        1                 
 284                 0.3500           0.3500         9.365e-06        
                   2.427e-05         25.0000        1                 
 285                 0.3500           0.3500         1.596e-05        
                   4.996e-05         25.0000        1                 
 286                 0.3500           0.3495         9.932e-06        
                   2.315e-05         25.0000        1                 
 287                 0.3500           0.3500         1.388e-05        
                   4.037e-05         25.0000        1                 
 288                 0.3500           0.3500         2.200e-05        
                   6.662e-05         25.0000        1                 
 289                 0.3499           0.3499         4.258e-06        
                   2.475e-05         25.0000        1                 
 290                 0.3497           0.3467         3.725e-06        
                   2.722e-05         25.0000        1                 
 291                 0.3499           0.3499         5.315e-06        
                   2.603e-05         25.0000        1                 
 292                 0.3499           0.3482         1.059e-05        
                   2.199e-05         25.0000        1                 
 293                 0.3500           0.3500         3.822e-05        
                   9.142e-05         25.0000        1                 
 294                 0.3496           0.3486         1.926e-06        
                   2.962e-05         25.0000        1                 
 295                 0.2563           0.2801         2.962e-03        
                   6.671e-05         25.0000        1                 
 296                 0.3498           0.3498         6.302e-06        
                   5.100e-05         25.0000        1                 
 297                 0.3499           0.3499         1.817e-05        
                   7.993e-05         25.0000        1                 
 298                 0.3499           0.3499         9.808e-06        
                   4.310e-05         25.0000        1                 
 299                 0.3499           0.3500         9.891e-06        
                   3.781e-05         25.0000        1                 
 300                 0.3499           0.3499         4.551e-06        
                   2.049e-05         25.0000        1                 
 301                 0.3500           0.3500         2.415e-05        
                   6.188e-05         25.0000        1                 
 302                 0.3498           0.3498         2.620e-06        
                   2.823e-05         25.0000        1                 
 303                 0.3499           0.3499         2.265e-05        
                   8.577e-05         25.0000        1                 
 304                 0.3499           0.3499         1.479e-05        
                   5.595e-05         25.0000        1                 
 305                 0.3500           0.3500         1.211e-05        
                   3.817e-05         25.0000        1                 
 306                 0.3500           0.3500         1.068e-05        
                   3.966e-05         25.0000        1                 
 307                 0.3500           0.3500         7.845e-06        
                   2.788e-05         25.0000        1                 
 308                 0.3499           0.3499         9.364e-06        
                   4.559e-05         25.0000        1                 
 309                 0.3499           0.3499         1.901e-05        
                   6.581e-05         25.0000        1                 
 310                 0.3499           0.3499         9.098e-06        
                   4.514e-05         25.0000        1                 
 311                 0.3500           0.3500         2.398e-05        
                   6.852e-05         25.0000        1                 
 312                 0.3498           0.3498         2.734e-06        
                   3.276e-05         25.0000        1                 
 313                 0.3499           0.3499         9.331e-06        
                   5.586e-05         25.0000        1                 
 314                 0.3498           0.3498         4.917e-06        
                   4.880e-05         25.0000        1                 
 315                 0.3499           0.3499         1.083e-05        
                   4.539e-05         25.0000        1                 
 316                 0.3499           0.3499         7.818e-06        
                   3.687e-05         25.0000        1                 
 317                 0.3499           0.3500         8.909e-06        
                   3.516e-05         25.0000        1                 
 318                 0.3499           0.3499         8.520e-06        
                   3.971e-05         25.0000        1                 
 319                 0.3499           0.3499         6.034e-06        
                   3.768e-05         25.0000        1                 
 320                 0.3499           0.3499         7.029e-06        
                   3.004e-05         25.0000        1                 
 321                 0.3499           0.3499         1.144e-05        
                   5.765e-05         25.0000        1                 
 322                 0.3499           0.3499         6.094e-06        
                   4.251e-05         25.0000        1                 
 323                 0.3500           0.3500         7.974e-06        
                   2.651e-05         25.0000        1                 
 324                 0.3500           0.3498         7.265e-06        
                   2.340e-05         25.0000        1                 
 325                 0.3499           0.3445         1.829e-05        
                   2.088e-05         25.0000        1                 
 326                 0.3499           0.3477         1.998e-05        
                   2.441e-05         25.0000        1                 
 327                 0.3499           0.3499         5.280e-06        
                   2.875e-05         25.0000        1                 
 328                 0.3499           0.3499         1.850e-05        
                   6.279e-05         25.0000        1                 
 329                 0.3500           0.3500         1.611e-05        
                   4.878e-05         25.0000        1                 
 330                 0.3499           0.3499         5.674e-06        
                   3.328e-05         25.0000        1                 
 331                 0.3500           0.3500         1.353e-05        
                   4.435e-05         25.0000        1                 
 332                 0.3500           0.3500         8.877e-06        
                   2.732e-05         25.0000        1                 
 333                 0.3500           0.3500         1.390e-05        
                   3.643e-05         25.0000        1                 
 334                 0.3500           0.3500         1.277e-05        
                   4.449e-05         25.0000        1                 
 335                 0.3499           0.3499         5.904e-06        
                   3.266e-05         25.0000        1                 
 336                 0.3499           0.3499         5.521e-06        
                   2.392e-05         25.0000        1                 
 337                 0.3496           0.3425         5.045e-06        
                   2.714e-05         25.0000        1                 
 338                 0.3500           0.3500         3.891e-05        
                   1.038e-04         25.0000        1                 
 339                 0.3498           0.3498         3.185e-06        
                   3.353e-05         25.0000        1                 
 340                 0.3499           0.3499         4.748e-06        
                   3.524e-05         25.0000        1                 
 341                 0.3499           0.3499         2.030e-05        
                   6.764e-05         25.0000        1                 
 342                 0.3499           0.3499         1.439e-05        
                   5.334e-05         25.0000        1                 
 343                 0.3500           0.3500         4.728e-05        
                   1.191e-04         25.0000        1                 
 344                 0.3499           0.3499         1.996e-05        
                   7.713e-05         25.0000        1                 
 345                 0.3500           0.3500         1.961e-05        
                   5.091e-05         25.0000        1                 
 346                 0.3499           0.3499         2.028e-05        
                   7.172e-05         25.0000        1                 
 347                 0.3498           0.3498         3.788e-06        
                   4.390e-05         25.0000        1                 
 348                 0.3500           0.3500         9.390e-06        
                   3.304e-05         25.0000        1                 
 349                 0.3499           0.3499         1.018e-05        
                   4.625e-05         25.0000        1                 
 350                 0.3499           0.3499         8.980e-06        
                   4.786e-05         25.0000        1                 
 351                 0.3500           0.3500         2.112e-05        
                   6.533e-05         25.0000        1                 
 352                 0.3499           0.3499         9.119e-06        
                   5.156e-05         25.0000        1                 
 353                 0.3499           0.3498         7.817e-06        
                   3.920e-05         25.0000        1                 
 354                 0.3500           0.3500         1.059e-05        
                   3.396e-05         25.0000        1                 
 355                 0.3500           0.3500         1.395e-05        
                   3.950e-05         25.0000        1                 
 356                 0.3500           0.3499         1.601e-05        
                   5.589e-05         25.0000        1                 
 357                 0.3499           0.3499         5.793e-06        
                   4.065e-05         25.0000        1                 
 358                 0.3500           0.3500         1.373e-05        
                   4.146e-05         25.0000        1                 
 359                 0.3499           0.3499         6.648e-06        
                   2.884e-05         25.0000        1                 
 360                 0.3499           0.3499         7.854e-06        
                   3.477e-05         25.0000        1                 
 361                 0.3500           0.3500         1.421e-05        
                   4.220e-05         25.0000        1                 
 362                 0.3500           0.3500         2.258e-05        
                   5.751e-05         25.0000        1                 
 363                 0.3499           0.3499         1.234e-05        
                   4.803e-05         25.0000        1                 
 364                 0.3500           0.3500         4.047e-05        
                   1.086e-04         25.0000        1                 
 365                 0.3499           0.3499         1.055e-05        
                   4.573e-05         25.0000        1                 
 366                 0.3500           0.3500         8.981e-06        
                   3.383e-05         25.0000        1                 
 367                 0.3499           0.3499         9.372e-06        
                   4.082e-05         25.0000        1                 
 368                 0.3499           0.3499         1.832e-05        
                   6.374e-05         25.0000        1                 
 369                 0.3497           0.3497         6.539e-06        
                   7.104e-05         25.0000        1                 
 370                 0.3500           0.3500         1.184e-05        
                   3.586e-05         25.0000        1                 
 371                 0.3499           0.3499         1.926e-05        
                   6.954e-05         25.0000        1                 
 372                 0.3499           0.3499         1.585e-05        
                   5.497e-05         25.0000        1                 
 373                 0.3499           0.3499         8.567e-06        
                   4.343e-05         25.0000        1                 
 374                 0.3499           0.3499         8.937e-06        
                   3.946e-05         25.0000        1                 
 375                 0.3499           0.3499         4.887e-06        
                   2.371e-05         25.0000        1                 
 376                 0.3500           0.3500         1.151e-05        
                   3.440e-05         25.0000        1                 
 377                 0.3498           0.3498         4.864e-06        
                   4.179e-05         25.0000        1                 
 378                 0.3499           0.3499         4.798e-06        
                   2.678e-05         25.0000        1                 
 379                 0.3500           0.3500         1.718e-05        
                   5.131e-05         25.0000        1                 
 380                 0.3499           0.3499         7.111e-06        
                   3.696e-05         25.0000        1                 
 381                 0.3499           0.3499         5.633e-05        
                   1.613e-04         25.0000        1                 
 382                 0.3500           0.3500         6.026e-06        
                   2.033e-05         25.0000        1                 
 383                 0.3499           0.3341         4.319e-05        
                   1.936e-05         25.0000        1                 
 384                 0.3498           0.3498         3.087e-06        
                   3.360e-05         25.0000        1                 
 385                 0.3500           0.3500         3.894e-05        
                   9.267e-05         25.0000        1                 
 386                 0.3499           0.3499         7.308e-06        
                   3.309e-05         25.0000        1                 
 387                 0.3499           0.3499         8.830e-06        
                   4.693e-05         25.0000        1                 
 388                 0.3499           0.3499         4.423e-05        
                   1.246e-04         25.0000        1                 
 389                 0.3498           0.3498         8.040e-06        
                   5.604e-05         25.0000        1                 
 390                 0.3499           0.3431         2.773e-05        
                   2.105e-05         25.0000        1                 
 391                 0.3499           0.3499         1.854e-05        
                   7.957e-05         25.0000        1                 
 392                 0.3500           0.3500         1.140e-05        
                   3.782e-05         25.0000        1                 
 393                 0.3499           0.3499         8.663e-06        
                   4.452e-05         25.0000        1                 
 394                 0.3499           0.3499         1.141e-05        
                   4.672e-05         25.0000        1                 
 395                 0.3499           0.3499         4.212e-06        
                   2.214e-05         25.0000        1                 
 396                 0.3500           0.3500         1.085e-05        
                   3.944e-05         25.0000        1                 
 397                 0.3498           0.3402         1.352e-05        
                   2.811e-05         25.0000        1                 
 398                 0.3499           0.3499         5.390e-06        
                   2.610e-05         25.0000        1                 
 399                 0.3500           0.3500         3.282e-05        
                   8.299e-05         25.0000        1                 
 400                 0.3499           0.3499         8.547e-06        
                   4.439e-05         25.0000        1                 
 401                 0.3500           0.3500         1.077e-05        
                   3.955e-05         25.0000        1                 
 402                 0.3498           0.3498         3.236e-06        
                   3.196e-05         25.0000        1                 
 403                 0.3499           0.3499         1.084e-05        
                   5.911e-05         25.0000        1                 
 404                 0.3498           0.3498         2.871e-06        
                   3.390e-05         25.0000        1                 
 405                 0.3499           0.3499         6.289e-06        
                   3.204e-05         25.0000        1                 
 406                 0.3498           0.3498         8.029e-06        
                   5.578e-05         25.0000        1                 
 407                 0.3500           0.3499         7.205e-06        
                   2.416e-05         25.0000        1                 
 408                 0.3499           0.3499         1.097e-05        
                   4.536e-05         25.0000        1                 
 409                 0.3500           0.3500         1.630e-05        
                   4.564e-05         25.0000        1                 
 410                 0.3498           0.3498         3.328e-06        
                   3.895e-05         25.0000        1                 
 411                 0.3499           0.3478         1.356e-05        
                   1.954e-05         25.0000        1                 
 412                 0.3499           0.3499         1.758e-05        
                   7.632e-05         25.0000        1                 
 413                 0.3500           0.3500         1.194e-05        
                   3.893e-05         25.0000        1                 
 414                 0.3499           0.3499         6.874e-06        
                   3.379e-05         25.0000        1                 
 415                 0.3499           0.3499         6.742e-06        
                   3.232e-05         25.0000        1                 
 416                 0.3499           0.3499         1.491e-05        
                   5.986e-05         25.0000        1                 
 417                 0.3500           0.3500         7.329e-06        
                   2.235e-05         25.0000        1                 
 418                 0.3499           0.3499         4.140e-06        
                   2.564e-05         25.0000        1                 
 419                 0.3498           0.3498         1.390e-05        
                   9.115e-05         25.0000        1                 
 420                 0.3500           0.3500         3.281e-05        
                   9.176e-05         25.0000        1                 
 421                 0.3499           0.3485         4.299e-06        
                   1.832e-05         25.0000        1                 
 422                 0.3500           0.3500         4.462e-05        
                   1.064e-04         25.0000        1                 
 423                 0.3500           0.3500         2.226e-05        
                   6.326e-05         25.0000        1                 
 424                 0.3498           0.3498         5.591e-06        
                   5.430e-05         25.0000        1                 
 425                 0.3500           0.3500         2.887e-05        
                   8.145e-05         25.0000        1                 
 426                 0.3499           0.3499         8.590e-06        
                   3.474e-05         25.0000        1                 
 427                 0.3499           0.3499         9.465e-06        
                   3.875e-05         25.0000        1                 
 428                 0.3493           0.3493         2.934e-06        
                   8.217e-05         25.0000        1                 
 429                 0.3500           0.3493         1.048e-05        
                   2.427e-05         25.0000        1                 
 430                 0.3499           0.3499         1.672e-05        
                   6.803e-05         25.0000        1                 
 431                 0.3499           0.3499         4.498e-06        
                   2.264e-05         25.0000        1                 
 432                 0.3500           0.3500         1.547e-05        
                   3.670e-05         25.0000        1                 
 433                 0.3498           0.3498         9.707e-06        
                   6.720e-05         25.0000        1                 
 434                 0.3499           0.3498         3.583e-06        
                   2.586e-05         25.0000        1                 
 435                 0.3500           0.3500         7.977e-06        
                   2.759e-05         25.0000        1                 
 436                 0.3499           0.3499         7.506e-06        
                   4.727e-05         25.0000        1                 
 437                 0.3499           0.3497         3.876e-06        
                   2.283e-05         25.0000        1                 
 438                 0.3499           0.3499         2.439e-05        
                   8.404e-05         25.0000        1                 
 439                 0.3498           0.3498         8.840e-06        
                   5.733e-05         25.0000        1                 
 440                 0.3499           0.3499         4.903e-06        
                   2.563e-05         25.0000        1                 
 441                 0.3499           0.3499         2.343e-05        
                   7.495e-05         25.0000        1                 
 442                 0.3500           0.3500         1.206e-05        
                   4.166e-05         25.0000        1                 
 443                 0.3499           0.3499         2.013e-05        
                   7.256e-05         25.0000        1                 
 444                 0.3500           0.3500         1.099e-05        
                   4.134e-05         25.0000        1                 
 445                 0.3498           0.3498         5.474e-06        
                   4.819e-05         25.0000        1                 
 446                 0.3487           0.3177         4.942e-04        
                   1.994e-05         25.0000        1                 
 447                 0.3500           0.3500         1.074e-05        
                   3.682e-05         25.0000        1                 
 448                 0.3497           0.3497         2.712e-06        
                   4.107e-05         25.0000        1                 
 449                 0.3499           0.3499         1.664e-05        
                   6.060e-05         25.0000        1                 
 450                 0.3499           0.3499         5.426e-06        
                   2.783e-05         25.0000        1                 
 451                 0.3500           0.3500         6.914e-06        
                   2.834e-05         25.0000        1                 
 452                 0.3499           0.3498         4.566e-06        
                   2.391e-05         25.0000        1                 
 453                 0.3499           0.3499         7.238e-06        
                   3.919e-05         25.0000        1                 
 454                 0.3498           0.3307         5.439e-05        
                   2.403e-05         25.0000        1                 
 455                 0.3499           0.3499         6.934e-06        
                   4.048e-05         25.0000        1                 
 456                 0.3500           0.3500         1.543e-05        
                   4.776e-05         25.0000        1                 
 457                 0.3500           0.3500         1.729e-05        
                   5.888e-05         25.0000        1                 
 458                 0.3500           0.3500         1.474e-05        
                   4.493e-05         25.0000        1                 
 459                 0.3499           0.3498         4.229e-06        
                   2.323e-05         25.0000        1                 
 460                 0.3499           0.3466         2.415e-05        
                   2.040e-05         25.0000        1                 
 461                 0.3500           0.3500         1.028e-05        
                   2.955e-05         25.0000        1                 
 462                 0.3499           0.3499         7.548e-06        
                   3.056e-05         25.0000        1                 
 463                 0.3499           0.3499         4.679e-06        
                   2.151e-05         25.0000        1                 
 464                 0.3499           0.3499         7.485e-06        
                   4.624e-05         25.0000        1                 
 465                 0.3500           0.3500         2.139e-05        
                   5.926e-05         25.0000        1                 
 466                 0.3499           0.3499         2.507e-05        
                   8.860e-05         25.0000        1                 
 467                 0.3499           0.3499         5.988e-06        
                   3.083e-05         25.0000        1                 
 468                 0.3499           0.3499         7.929e-06        
                   3.464e-05         25.0000        1                 
 469                 0.3500           0.3500         1.128e-05        
                   3.420e-05         25.0000        1                 
 470                 0.3498           0.3498         3.661e-06        
                   3.234e-05         25.0000        1                 
 471                 0.3500           0.3500         7.885e-06        
                   2.683e-05         25.0000        1                 
 472                 0.3499           0.3499         1.991e-05        
                   8.353e-05         25.0000        1                 
 473                 0.3499           0.3499         3.336e-06        
                   2.708e-05         25.0000        1                 
 474                 0.3498           0.3498         1.219e-05        
                   8.150e-05         25.0000        1                 
 475                 0.3498           0.3495         3.351e-06        
                   3.111e-05         25.0000        1                 
 476                 0.3499           0.3499         3.066e-05        
                   1.202e-04         25.0000        1                 
 477                 0.3499           0.3499         4.186e-06        
                   3.193e-05         25.0000        1                 
 478                 0.3498           0.3479         3.574e-06        
                   1.887e-05         25.0000        1                 
 479                 0.3499           0.3499         3.873e-06        
                   2.478e-05         25.0000        1                 
 480                 0.3487           0.3487         3.337e-06        
                   1.252e-04         25.0000        1                 
 481                 0.3499           0.3491         4.975e-06        
                   1.718e-05         25.0000        1                 
 482                 0.3499           0.3499         1.171e-05        
                   5.043e-05         25.0000        1                 
 483                 0.3499           0.3499         1.581e-05        
                   5.691e-05         25.0000        1                 
 484                 0.3498           0.3498         2.867e-06        
                   2.764e-05         25.0000        1                 
 485                 0.3499           0.3499         5.362e-06        
                   3.043e-05         25.0000        1                 
 486                 0.3499           0.3499         1.441e-05        
                   6.413e-05         25.0000        1                 
 487                 0.3500           0.3500         2.050e-05        
                   6.231e-05         25.0000        1                 
 488                 0.3499           0.3499         7.003e-06        
                   3.294e-05         25.0000        1                 
 489                 0.3500           0.3500         9.201e-06        
                   2.630e-05         25.0000        1                 
 490                 0.3499           0.3499         5.256e-06        
                   2.098e-05         25.0000        1                 
 491                 0.3499           0.3499         1.409e-05        
                   5.626e-05         25.0000        1                 
 492                 0.3500           0.3500         7.280e-05        
                   1.589e-04         25.0000        1                 
 493                 0.3499           0.3499         1.399e-05        
                   6.709e-05         25.0000        1                 
 494                 0.3499           0.3499         1.085e-05        
                   5.438e-05         25.0000        1                 
 495                 0.3499           0.3499         7.703e-06        
                   3.132e-05         25.0000        1                 
 496                 0.3499           0.3499         5.278e-06        
                   3.276e-05         25.0000        1                 
 497                 0.3499           0.3499         1.345e-05        
                   4.845e-05         25.0000        1                 
 498                 0.3499           0.3499         1.133e-05        
                   4.557e-05         25.0000        1                 
 499                 0.3499           0.3499         1.012e-05        
                   4.132e-05         25.0000        1                 
 500                 0.3499           0.3497         6.156e-06        
                   2.740e-05         25.0000        1                 
 501                 0.3499           0.3499         4.896e-06        
                   2.109e-05         25.0000        1                 
 502                 0.3500           0.3500         2.061e-05        
                   5.696e-05         25.0000        1                 
 503                 0.3500           0.3497         2.534e-05        
                   2.859e-05         25.0000        1                 
 504                 0.3499           0.3499         5.391e-06        
                   3.348e-05         25.0000        1                 
 505                 0.3498           0.3498         6.904e-06        
                   5.261e-05         25.0000        1                 
 506                 0.3499           0.3499         7.412e-06        
                   3.558e-05         25.0000        1                 
 507                 0.3500           0.3499         9.454e-06        
                   3.429e-05         25.0000        1                 
 508                 0.3500           0.3500         2.059e-05        
                   6.610e-05         25.0000        1                 
 509                 0.3500           0.3500         3.898e-05        
                   1.000e-04         25.0000        1                 
 510                 0.3500           0.3500         8.052e-06        
                   2.682e-05         25.0000        1                 
 511                 0.3499           0.3499         7.466e-06        
                   4.290e-05         25.0000        1                 
 512                 0.3499           0.3499         7.284e-06        
                   4.576e-05         25.0000        1                 
 513                 0.3495           0.3495         5.172e-06        
                   7.513e-05         25.0000        1                 
 514                 0.3498           0.3475         4.068e-06        
                   2.528e-05         25.0000        1                 
 515                 0.3498           0.3498         3.963e-06        
                   4.229e-05         25.0000        1                 
 516                 0.3500           0.3500         1.246e-05        
                   4.091e-05         25.0000        1                 
 517                 0.3500           0.3500         2.242e-05        
                   6.214e-05         25.0000        1                 
 518                 0.3499           0.3499         6.132e-06        
                   3.850e-05         25.0000        1                 
 519                 0.3500           0.3500         9.557e-06        
                   3.722e-05         25.0000        1                 
 520                 0.3500           0.3499         6.871e-06        
                   2.672e-05         25.0000        1                 
 521                 0.3499           0.3499         5.697e-06        
                   3.298e-05         25.0000        1                 
 522                 0.3500           0.3500         2.409e-05        
                   7.447e-05         25.0000        1                 
 523                 0.3500           0.3500         8.602e-06        
                   3.151e-05         25.0000        1                 
 524                 0.3499           0.3499         5.437e-06        
                   2.759e-05         25.0000        1                 
 525                 0.3500           0.3500         1.555e-05        
                   4.094e-05         25.0000        1                 
 526                 0.3497           0.3497         2.364e-06        
                   3.040e-05         25.0000        1                 
 527                 0.3500           0.3500         3.629e-05        
                   9.738e-05         25.0000        1                 
 528                 0.3498           0.3498         6.414e-06        
                   5.527e-05         25.0000        1                 
 529                 0.3499           0.3499         7.750e-06        
                   3.736e-05         25.0000        1                 
 530                 0.3498           0.3498         2.522e-06        
                   2.940e-05         25.0000        1                 
 531                 0.3500           0.3500         1.264e-05        
                   4.398e-05         25.0000        1                 
 532                 0.3500           0.3500         2.959e-05        
                   7.804e-05         25.0000        1                 
 533                 0.3498           0.3498         3.673e-06        
                   3.887e-05         25.0000        1                 
 534                 0.3499           0.3499         8.197e-06        
                   4.281e-05         25.0000        1                 
 535                 0.3499           0.3499         6.211e-06        
                   3.291e-05         25.0000        1                 
 536                 0.3496           0.3496         5.442e-06        
                   6.529e-05         25.0000        1                 
 537                 0.1989           0.3492         8.475e-03        
                   2.999e-05         25.0000        1                 
 538                 0.3499           0.3499         6.142e-06        
                   2.596e-05         25.0000        1                 
 539                 0.3500           0.3500         2.982e-05        
                   7.097e-05         25.0000        1                 
 540                 0.3499           0.3499         3.252e-06        
                   2.000e-05         25.0000        1                 
 541                 0.3499           0.3498         5.345e-06        
                   1.958e-05         25.0000        1                 
 542                 0.3500           0.3500         2.643e-05        
                   7.722e-05         25.0000        1                 
 543                 0.3500           0.3500         1.310e-05        
                   3.822e-05         25.0000        1                 
 544                 0.3499           0.3499         4.368e-06        
                   1.850e-05         25.0000        1                 
 545                 0.3499           0.3499         1.108e-05        
                   4.767e-05         25.0000        1                 
 546                 0.3499           0.3499         2.168e-05        
                   7.493e-05         25.0000        1                 
 547                 0.3499           0.3499         1.798e-05        
                   6.983e-05         25.0000        1                 
 548                 0.3500           0.3500         9.287e-06        
                   3.107e-05         25.0000        1                 
 549                 0.3500           0.3500         1.571e-05        
                   4.835e-05         25.0000        1                 
 550                 0.3500           0.3500         1.604e-05        
                   4.491e-05         25.0000        1                 
 551                 0.3499           0.3499         9.623e-06        
                   4.165e-05         25.0000        1                 
 552                 0.3499           0.3499         1.611e-05        
                   7.607e-05         25.0000        1                 
 553                 0.3500           0.3500         7.268e-05        
                   1.686e-04         25.0000        1                 
 554                 0.3497           0.3497         2.734e-06        
                   3.940e-05         25.0000        1                 
 555                 0.3500           0.3500         1.738e-05        
                   5.103e-05         25.0000        1                 
 556                 0.3500           0.3500         1.228e-05        
                   3.682e-05         25.0000        1                 
 557                 0.3499           0.3499         5.407e-06        
                   2.307e-05         25.0000        1                 
 558                 0.3499           0.3499         9.704e-06        
                   4.299e-05         25.0000        1                 
 559                 0.3499           0.3499         4.584e-06        
                   2.318e-05         25.0000        1                 
 560                 0.3500           0.3500         9.684e-06        
                   2.788e-05         25.0000        1                 
 561                 0.3500           0.3500         9.317e-06        
                   2.701e-05         25.0000        1                 
 562                 0.3499           0.3499         9.888e-06        
[...]
                   4.610e-05         25.0000        1                 
 9861                0.3500           0.3500         1.010e-05        
                   3.250e-05         25.0000        1                 
 9862                0.3499           0.3498         5.166e-06        
                   3.044e-05         25.0000        1                 
 9863                0.3499           0.3499         7.055e-06        
                   3.385e-05         25.0000        1                 
 9864                0.3499           0.3499         9.745e-06        
                   4.054e-05         25.0000        1                 
 9865                0.3499           0.3499         3.163e-05        
                   1.205e-04         25.0000        1                 
 9866                0.3499           0.3499         8.953e-06        
                   3.668e-05         25.0000        1                 
 9867                0.3500           0.3500         1.650e-05        
                   5.389e-05         25.0000        1                 
 9868                0.3499           0.3499         1.146e-05        
                   4.955e-05         25.0000        1                 
 9869                0.3498           0.3492         2.147e-06        
                   2.239e-05         25.0000        1                 
 9870                0.3500           0.3500         1.288e-05        
                   3.461e-05         25.0000        1                 
 9871                0.3498           0.3492         3.078e-06        
                   2.426e-05         25.0000        1                 
 9872                0.3496           0.3496         4.154e-06        
                   5.677e-05         25.0000        1                 
 9873                0.3499           0.3499         6.536e-06        
                   4.568e-05         25.0000        1                 
 9874                0.3499           0.3499         8.450e-06        
                   3.980e-05         25.0000        1                 
 9875                0.3499           0.3494         6.584e-06        
                   2.677e-05         25.0000        1                 
 9876                0.3498           0.3499         3.550e-06        
                   2.796e-05         25.0000        1                 
 9877                0.3499           0.3499         1.693e-05        
                   6.042e-05         25.0000        1                 
 9878                0.3499           0.3499         6.659e-06        
                   2.721e-05         25.0000        1                 
 9879                0.3500           0.3500         8.402e-06        
                   3.158e-05         25.0000        1                 
 9880                0.3499           0.3494         5.183e-06        
                   2.355e-05         25.0000        1                 
 9881                0.3499           0.3499         3.286e-05        
                   1.128e-04         25.0000        1                 
 9882                0.3499           0.3499         9.279e-06        
                   5.054e-05         25.0000        1                 
 9883                0.3500           0.3500         1.384e-05        
                   4.318e-05         25.0000        1                 
 9884                0.3499           0.3489         6.928e-06        
                   2.407e-05         25.0000        1                 
 9885                0.3498           0.3498         3.312e-06        
                   3.772e-05         25.0000        1                 
 9886                0.3500           0.3500         2.705e-05        
                   6.065e-05         25.0000        1                 
 9887                0.3499           0.3499         8.706e-06        
                   4.346e-05         25.0000        1                 
 9888                0.3499           0.3499         9.948e-06        
                   3.966e-05         25.0000        1                 
 9889                0.3499           0.3499         6.124e-06        
                   2.894e-05         25.0000        1                 
 9890                0.3499           0.3499         1.364e-05        
                   4.842e-05         25.0000        1                 
 9891                0.3499           0.3499         5.761e-06        
                   3.001e-05         25.0000        1                 
 9892                0.3500           0.3500         1.165e-05        
                   3.880e-05         25.0000        1                 
 9893                0.3499           0.3499         1.074e-05        
                   4.537e-05         25.0000        1                 
 9894                0.3499           0.3499         1.129e-05        
                   6.285e-05         25.0000        1                 
 9895                0.3499           0.3499         8.890e-06        
                   3.651e-05         25.0000        1                 
 9896                0.3500           0.3500         2.160e-05        
                   6.544e-05         25.0000        1                 
 9897                0.3499           0.3499         1.001e-05        
                   4.438e-05         25.0000        1                 
 9898                0.3499           0.3499         5.611e-06        
                   3.286e-05         25.0000        1                 
 9899                0.3500           0.3500         1.545e-05        
                   4.575e-05         25.0000        1                 
 9900                0.3500           0.3500         1.142e-05        
                   3.713e-05         25.0000        1                 
 9901                0.3500           0.3500         8.130e-06        
                   2.924e-05         25.0000        1                 
 9902                0.3499           0.3499         6.207e-06        
                   2.935e-05         25.0000        1                 
 9903                0.3500           0.3500         3.052e-05        
                   8.954e-05         25.0000        1                 
 9904                0.3500           0.3498         9.611e-06        
                   3.068e-05         25.0000        1                 
 9905                0.3500           0.3500         8.354e-06        
                   2.974e-05         25.0000        1                 
 9906                0.3500           0.3500         2.054e-05        
                   6.302e-05         25.0000        1                 
 9907                0.3499           0.3499         1.657e-05        
                   6.566e-05         25.0000        1                 
 9908                0.3498           0.3485         2.855e-06        
                   1.816e-05         25.0000        1                 
 9909                0.3500           0.3500         7.247e-06        
                   2.644e-05         25.0000        1                 
 9910                0.3500           0.3500         1.130e-05        
                   3.411e-05         25.0000        1                 
 9911                0.3498           0.3498         3.890e-06        
                   3.353e-05         25.0000        1                 
 9912                0.3500           0.3500         3.091e-05        
                   7.124e-05         25.0000        1                 
 9913                0.3500           0.3500         1.679e-05        
                   4.306e-05         25.0000        1                 
 9914                0.3499           0.3499         9.489e-06        
                   4.204e-05         25.0000        1                 
 9915                0.3499           0.3499         4.513e-06        
                   2.644e-05         25.0000        1                 
 9916                0.3499           0.3499         7.567e-06        
                   3.555e-05         25.0000        1                 
 9917                0.3499           0.3496         6.780e-06        
                   3.280e-05         25.0000        1                 
 9918                0.3499           0.3470         5.288e-06        
                   1.905e-05         25.0000        1                 
 9919                0.3499           0.3499         1.199e-05        
                   6.250e-05         25.0000        1                 
 9920                0.3499           0.3499         6.019e-06        
                   3.472e-05         25.0000        1                 
 9921                0.3500           0.3500         1.368e-05        
                   4.648e-05         25.0000        1                 
 9922                0.3500           0.3500         1.503e-05        
                   4.962e-05         25.0000        1                 
 9923                0.3498           0.3498         2.720e-06        
                   2.835e-05         25.0000        1                 
 9924                0.3499           0.3499         5.129e-06        
                   2.928e-05         25.0000        1                 
 9925                0.3500           0.3500         1.144e-05        
                   4.224e-05         25.0000        1                 
 9926                0.3498           0.3498         2.835e-06        
                   3.314e-05         25.0000        1                 
 9927                0.3498           0.3498         3.270e-06        
                   3.277e-05         25.0000        1                 
 9928                0.3499           0.3499         6.446e-06        
                   3.965e-05         25.0000        1                 
 9929                0.3499           0.3499         6.294e-06        
                   3.708e-05         25.0000        1                 
 9930                0.3499           0.3499         1.041e-05        
                   4.309e-05         25.0000        1                 
 9931                0.3499           0.3499         1.560e-05        
                   5.712e-05         25.0000        1                 
 9932                0.3500           0.3500         2.946e-05        
                   7.016e-05         25.0000        1                 
 9933                0.3499           0.3499         8.700e-06        
                   4.694e-05         25.0000        1                 
 9934                0.3499           0.3499         1.251e-05        
                   4.606e-05         25.0000        1                 
 9935                0.3499           0.3499         5.425e-06        
                   3.470e-05         25.0000        1                 
 9936                0.3499           0.3499         4.097e-06        
                   2.498e-05         25.0000        1                 
 9937                0.3500           0.3500         8.658e-06        
                   2.355e-05         25.0000        1                 
 9938                0.3498           0.3498         3.694e-06        
                   3.565e-05         25.0000        1                 
 9939                0.3500           0.3500         1.225e-05        
                   4.039e-05         25.0000        1                 
 9940                0.3499           0.3499         1.266e-05        
                   4.839e-05         25.0000        1                 
 9941                0.3499           0.3499         1.003e-05        
                   4.184e-05         25.0000        1                 
 9942                0.3498           0.3498         4.924e-06        
                   3.895e-05         25.0000        1                 
 9943                0.3499           0.3499         7.581e-05        
                   2.198e-04         25.0000        1                 
 9944                0.3498           0.3499         3.865e-06        
                   3.377e-05         25.0000        1                 
 9945                0.3500           0.3500         1.029e-05        
                   2.750e-05         25.0000        1                 
 9946                0.3499           0.3499         1.197e-05        
                   5.142e-05         25.0000        1                 
 9947                0.3499           0.3499         9.961e-06        
                   3.931e-05         25.0000        1                 
 9948                0.3499           0.3499         4.413e-06        
                   3.187e-05         25.0000        1                 
 9949                0.3500           0.3500         1.220e-05        
                   3.829e-05         25.0000        1                 
 9950                0.3499           0.3499         6.152e-06        
                   3.907e-05         25.0000        1                 
 9951                0.3499           0.3499         4.562e-06        
                   2.472e-05         25.0000        1                 
 9952                0.3499           0.3499         9.063e-06        
                   4.252e-05         25.0000        1                 
 9953                0.3500           0.3500         7.369e-06        
                   2.838e-05         25.0000        1                 
 9954                0.3500           0.3500         1.983e-05        
                   6.102e-05         25.0000        1                 
 9955                0.3498           0.3378         1.810e-04        
                   2.300e-05         25.0000        1                 
 9956                0.3500           0.3500         3.090e-05        
                   8.105e-05         25.0000        1                 
 9957                0.3499           0.3498         3.404e-06        
                   2.398e-05         25.0000        1                 
 9958                0.3499           0.3498         5.178e-06        
                   2.635e-05         25.0000        1                 
 9959                0.3500           0.3500         9.982e-06        
                   3.144e-05         25.0000        1                 
 9960                0.3499           0.3499         7.851e-06        
                   3.068e-05         25.0000        1                 
 9961                0.3499           0.3498         6.063e-06        
                   2.800e-05         25.0000        1                 
 9962                0.3499           0.3499         6.964e-06        
                   3.254e-05         25.0000        1                 
 9963                0.3500           0.3500         1.664e-05        
                   4.385e-05         25.0000        1                 
 9964                0.3500           0.3500         1.946e-05        
                   4.406e-05         25.0000        1                 
 9965                0.3499           0.3499         1.598e-05        
                   7.447e-05         25.0000        1                 
 9966                0.3500           0.3500         1.944e-05        
                   5.336e-05         25.0000        1                 
 9967                0.3500           0.3500         2.204e-05        
                   5.789e-05         25.0000        1                 
 9968                0.3500           0.3500         7.393e-06        
                   2.494e-05         25.0000        1                 
 9969                0.3500           0.3500         3.841e-05        
                   8.674e-05         25.0000        1                 
 9970                0.3499           0.3499         9.403e-06        
                   3.666e-05         25.0000        1                 
 9971                0.3499           0.3497         3.507e-06        
                   2.368e-05         25.0000        1                 
 9972                0.3499           0.3499         4.501e-06        
                   2.309e-05         25.0000        1                 
 9973                0.3500           0.3500         1.175e-05        
                   4.120e-05         25.0000        1                 
 9974                0.3500           0.3500         1.238e-05        
                   3.781e-05         25.0000        1                 
 9975                0.3499           0.3479         4.951e-06        
                   2.508e-05         25.0000        1                 
 9976                0.3499           0.3499         1.469e-05        
                   5.284e-05         25.0000        1                 
 9977                0.3497           0.3496         2.213e-06        
                   3.455e-05         25.0000        1                 
 9978                0.3498           0.3498         7.027e-06        
                   6.530e-05         25.0000        1                 
 9979                0.3499           0.3499         7.866e-06        
                   3.622e-05         25.0000        1                 
 9980                0.3500           0.3500         3.886e-05        
                   9.041e-05         25.0000        1                 
 9981                0.3499           0.3499         2.210e-05        
                   9.872e-05         25.0000        1                 
 9982                0.3500           0.3500         1.349e-05        
                   4.465e-05         25.0000        1                 
 9983                0.3499           0.3499         6.043e-06        
                   2.765e-05         25.0000        1                 
 9984                0.3499           0.3499         5.700e-06        
                   3.207e-05         25.0000        1                 
 9985                0.3500           0.3500         9.585e-06        
                   3.443e-05         25.0000        1                 
 9986                0.3499           0.3499         5.854e-06        
                   3.645e-05         25.0000        1                 
 9987                0.3499           0.3499         1.039e-05        
                   4.839e-05         25.0000        1                 
 9988                0.3500           0.3500         9.537e-06        
                   3.622e-05         25.0000        1                 
 9989                0.3498           0.3498         5.829e-06        
                   5.064e-05         25.0000        1                 
 9990                0.3498           0.3498         3.856e-06        
                   3.615e-05         25.0000        1                 
 9991                0.3499           0.3500         8.505e-06        
                   3.553e-05         25.0000        1                 
 9992                0.3498           0.3495         3.454e-06        
                   3.652e-05         25.0000        1                 
 9993                0.3499           0.3499         1.212e-05        
                   5.554e-05         25.0000        1                 
 9994                0.3499           0.3499         3.846e-06        
                   2.894e-05         25.0000        1                 
 9995                0.3499           0.3499         9.427e-06        
                   4.784e-05         25.0000        1                 
 9996                0.3499           0.3499         8.543e-06        
                   3.692e-05         25.0000        1                 
 9997                0.3500           0.3500         1.295e-05        
                   3.853e-05         25.0000        1                 
 9998                0.3499           0.3499         9.237e-06        
                   4.995e-05         25.0000        1                 
 9999                0.3499           0.3499         1.377e-05        
                   7.184e-05         25.0000        1                 
 10000               0.3498           0.3497         2.902e-06        
                   2.574e-05         25.0000        1                 
