$DATA1 SOURCE='HSPICE' VERSION='F-2011.09 64-BIT'
.TITLE '* include model and subckts'
 index            write1           read1            write0            
                  read0            temper           alter#            
 1                   failed           0.3500           failed         
                     failed          25.0000        1                 
 2                   failed           0.3499           failed         
                     failed          25.0000        1                 
 3                   failed           0.3500           failed         
                     failed          25.0000        1                 
 4                   failed           0.3500           failed         
                     failed          25.0000        1                 
 5                   failed           0.3499           failed         
                     failed          25.0000        1                 
 6                   failed           0.3500           failed         
                     failed          25.0000        1                 
 7                   failed           0.3499           failed         
                     failed          25.0000        1                 
 8                   failed           0.3483           failed         
                     failed          25.0000        1                 
 9                   failed           0.3499           failed         
                     failed          25.0000        1                 
 10                  failed           0.3500           failed         
                     failed          25.0000        1                 
 11                  failed           0.3497           failed         
                     failed          25.0000        1                 
 12                  failed           0.3500           failed         
                     failed          25.0000        1                 
 13                  failed           0.3499           failed         
                     failed          25.0000        1                 
 14                  failed           0.3499           failed         
                     failed          25.0000        1                 
 15                  failed           0.3498           failed         
                     failed          25.0000        1                 
 16                  failed           0.3500           failed         
                     failed          25.0000        1                 
 17                  failed           0.3500           failed         
                     failed          25.0000        1                 
 18                  failed           0.3499           failed         
                     failed          25.0000        1                 
 19                  failed           0.3500           failed         
                     failed          25.0000        1                 
 20                  failed           0.3499           failed         
                     failed          25.0000        1                 
 21                  failed           0.3499           failed         
                     failed          25.0000        1                 
 22                  failed           0.3499           failed         
                     failed          25.0000        1                 
 23                  failed           0.3500           failed         
                     failed          25.0000        1                 
 24                  failed           0.3499           failed         
                     failed          25.0000        1                 
 25                  failed           0.3500           failed         
                     failed          25.0000        1                 
 26                  failed           0.3499           failed         
                     failed          25.0000        1                 
 27                  failed           0.3500           failed         
                     failed          25.0000        1                 
 28                  failed           0.3496           failed         
                     failed          25.0000        1                 
 29                  failed           0.3500           failed         
                     failed          25.0000        1                 
 30                  failed           0.3498           failed         
                     failed          25.0000        1                 
 31                  failed           0.3499           failed         
                     failed          25.0000        1                 
 32                  failed           0.3499           failed         
                     failed          25.0000        1                 
 33                  failed           0.3499           failed         
                     failed          25.0000        1                 
 34                  failed           0.3500           failed         
                     failed          25.0000        1                 
 35                  failed           0.3499           failed         
                     failed          25.0000        1                 
 36                  failed           0.3498           failed         
                     failed          25.0000        1                 
 37                  failed           0.3499           failed         
                     failed          25.0000        1                 
 38                  failed           0.3488           failed         
                     failed          25.0000        1                 
 39                  failed           0.3499           failed         
                     failed          25.0000        1                 
 40                  failed           0.3500           failed         
                     failed          25.0000        1                 
 41                  failed           0.3311           failed         
                     failed          25.0000        1                 
 42                  failed           0.3499           failed         
                     failed          25.0000        1                 
 43                  failed           0.3499           failed         
                     failed          25.0000        1                 
 44                  failed           0.3498           failed         
                     failed          25.0000        1                 
 45                  failed           0.3500           failed         
                     failed          25.0000        1                 
 46                  failed           0.3500           failed         
                     failed          25.0000        1                 
 47                  failed           0.3500           failed         
                     failed          25.0000        1                 
 48                  failed           0.3500           failed         
                     failed          25.0000        1                 
 49                  failed           0.3499           failed         
                     failed          25.0000        1                 
 50                  failed           0.3499           failed         
                     failed          25.0000        1                 
 51                  failed           0.3500           failed         
                     failed          25.0000        1                 
 52                  failed           0.3499           failed         
                     failed          25.0000        1                 
 53                  failed           0.3500           failed         
                     failed          25.0000        1                 
 54                  failed           0.3500           failed         
                     failed          25.0000        1                 
 55                  failed           0.3499           failed         
                     failed          25.0000        1                 
 56                  failed           0.3500           failed         
                     failed          25.0000        1                 
 57                  failed           0.3496           failed         
                     failed          25.0000        1                 
 58                  failed           0.3499           failed         
                     failed          25.0000        1                 
 59                  failed           0.3466           failed         
                     failed          25.0000        1                 
 60                  failed           0.3499           failed         
                     failed          25.0000        1                 
 61                  failed           0.3500           failed         
                     failed          25.0000        1                 
 62                  failed           0.3498           failed         
                     failed          25.0000        1                 
 63                  failed           0.3499           failed         
                     failed          25.0000        1                 
 64                  failed           0.3498           failed         
                     failed          25.0000        1                 
 65                  failed           0.3499           failed         
                     failed          25.0000        1                 
 66                  failed           0.3498           failed         
                     failed          25.0000        1                 
 67                  failed           0.3499           failed         
                     failed          25.0000        1                 
 68                  failed           0.3498           failed         
                     failed          25.0000        1                 
 69                  failed           0.3499           failed         
                     failed          25.0000        1                 
 70                  failed           0.3500           failed         
                     failed          25.0000        1                 
 71                  failed           0.3499           failed         
                     failed          25.0000        1                 
 72                  failed           0.3500           failed         
                     failed          25.0000        1                 
 73                  failed           0.3498           failed         
                     failed          25.0000        1                 
 74                  failed           0.3500           failed         
                     failed          25.0000        1                 
 75                  failed           0.3499           failed         
                     failed          25.0000        1                 
 76                  failed           0.3329           failed         
                     failed          25.0000        1                 
 77                  failed           0.3500           failed         
                     failed          25.0000        1                 
 78                  failed           0.3500           failed         
                     failed          25.0000        1                 
 79                  failed           0.3498           failed         
                     failed          25.0000        1                 
 80                  failed           0.3499           failed         
                     failed          25.0000        1                 
 81                  failed           0.3499           failed         
                     failed          25.0000        1                 
 82                  failed           0.3500           failed         
                     failed          25.0000        1                 
 83                  failed           0.3499           failed         
                     failed          25.0000        1                 
 84                  failed           0.3499           failed         
                     failed          25.0000        1                 
 85                  failed           0.3500           failed         
                     failed          25.0000        1                 
 86                  failed           0.3498           failed         
                     failed          25.0000        1                 
 87                  failed           0.3499           failed         
                     failed          25.0000        1                 
 88                  failed           0.3499           failed         
                     failed          25.0000        1                 
 89                  failed           0.3500           failed         
                     failed          25.0000        1                 
 90                  failed           0.3497           failed         
                     failed          25.0000        1                 
 91                  failed           0.3499           failed         
                     failed          25.0000        1                 
 92                  failed           0.3500           failed         
                     failed          25.0000        1                 
 93                  failed           0.3500           failed         
                     failed          25.0000        1                 
 94                  failed           0.3500           failed         
                     failed          25.0000        1                 
 95                  failed           0.3499           failed         
                     failed          25.0000        1                 
 96                  failed           0.3499           failed         
                     failed          25.0000        1                 
 97                  failed           0.3496           failed         
                     failed          25.0000        1                 
 98                  failed           0.3499           failed         
                     failed          25.0000        1                 
 99                  failed           0.3500           failed         
                     failed          25.0000        1                 
 100                 failed           0.2761           failed         
                     failed          25.0000        1                 
 101                 failed           0.3499           failed         
                     failed          25.0000        1                 
 102                 failed           0.3499           failed         
                     failed          25.0000        1                 
 103                 failed           0.3499           failed         
                     failed          25.0000        1                 
 104                 failed           0.3499           failed         
                     failed          25.0000        1                 
 105                 failed           0.3500           failed         
                     failed          25.0000        1                 
 106                 failed           0.3499           failed         
                     failed          25.0000        1                 
 107                 failed           0.3499           failed         
                     failed          25.0000        1                 
 108                 failed           0.3500           failed         
                     failed          25.0000        1                 
 109                 failed           0.3499           failed         
                     failed          25.0000        1                 
 110                 failed           0.3500           failed         
                     failed          25.0000        1                 
 111                 failed           0.3500           failed         
                     failed          25.0000        1                 
 112                 failed           0.3500           failed         
                     failed          25.0000        1                 
 113                 failed           0.3499           failed         
                     failed          25.0000        1                 
 114                 failed           0.3499           failed         
                     failed          25.0000        1                 
 115                 failed           0.3499           failed         
                     failed          25.0000        1                 
 116                 failed           0.3500           failed         
                     failed          25.0000        1                 
 117                 failed           0.3460           failed         
                     failed          25.0000        1                 
 118                 failed           0.3497           failed         
                     failed          25.0000        1                 
 119                 failed           0.3500           failed         
                     failed          25.0000        1                 
 120                 failed           0.3500           failed         
                     failed          25.0000        1                 
 121                 failed           0.3499           failed         
                     failed          25.0000        1                 
 122                 failed           0.3458           failed         
                     failed          25.0000        1                 
 123                 failed           0.3499           failed         
                     failed          25.0000        1                 
 124                 failed           0.3500           failed         
                     failed          25.0000        1                 
 125                 failed           0.3499           failed         
                     failed          25.0000        1                 
 126                 failed           0.3499           failed         
                     failed          25.0000        1                 
 127                 failed           0.3497           failed         
                     failed          25.0000        1                 
 128                 failed           0.3500           failed         
                     failed          25.0000        1                 
 129                 failed           0.3500           failed         
                     failed          25.0000        1                 
 130                 failed           0.3498           failed         
                     failed          25.0000        1                 
 131                 failed           0.3500           failed         
                     failed          25.0000        1                 
 132                 failed           0.3499           failed         
                     failed          25.0000        1                 
 133                 failed           0.3500           failed         
                     failed          25.0000        1                 
 134                 failed           0.3500           failed         
                     failed          25.0000        1                 
 135                 failed           0.3499           failed         
                     failed          25.0000        1                 
 136                 failed           0.3499           failed         
                     failed          25.0000        1                 
 137                 failed           0.3500           failed         
                     failed          25.0000        1                 
 138                 failed           0.3500           failed         
                     failed          25.0000        1                 
 139                 failed           0.3499           failed         
                     failed          25.0000        1                 
 140                 failed           0.3500           failed         
                     failed          25.0000        1                 
 141                 failed           0.3499           failed         
                     failed          25.0000        1                 
 142                 failed           0.3498           failed         
                     failed          25.0000        1                 
 143                 failed           0.3500           failed         
                     failed          25.0000        1                 
 144                 failed           0.3499           failed         
                     failed          25.0000        1                 
 145                 failed           0.3500           failed         
                     failed          25.0000        1                 
 146                 failed           0.3499           failed         
                     failed          25.0000        1                 
 147                 failed           0.3498           failed         
                     failed          25.0000        1                 
 148                 failed           0.3499           failed         
                     failed          25.0000        1                 
 149                 failed           0.3441           failed         
                     failed          25.0000        1                 
 150                 failed           0.3500           failed         
                     failed          25.0000        1                 
 151                 failed           0.3499           failed         
                     failed          25.0000        1                 
 152                 failed           0.3500           failed         
                     failed          25.0000        1                 
 153                 failed           0.3499           failed         
                     failed          25.0000        1                 
 154                 failed           0.2976           failed         
                     failed          25.0000        1                 
 155                 failed           0.3498           failed         
                     failed          25.0000        1                 
 156                 failed           0.3500           failed         
                     failed          25.0000        1                 
 157                 failed           0.3498           failed         
                     failed          25.0000        1                 
 158                 failed           0.3499           failed         
                     failed          25.0000        1                 
 159                 failed           0.3500           failed         
                     failed          25.0000        1                 
 160                 failed           0.3499           failed         
                     failed          25.0000        1                 
 161                 failed           0.3500           failed         
                     failed          25.0000        1                 
 162                 failed           0.3498           failed         
                     failed          25.0000        1                 
 163                 failed           0.3499           failed         
                     failed          25.0000        1                 
 164                 failed           0.3499           failed         
                     failed          25.0000        1                 
 165                 failed           0.3499           failed         
                     failed          25.0000        1                 
 166                 failed           0.3495           failed         
                     failed          25.0000        1                 
 167                 failed           0.3500           failed         
                     failed          25.0000        1                 
 168                 failed           0.3499           failed         
                     failed          25.0000        1                 
 169                 failed           0.3499           failed         
                     failed          25.0000        1                 
 170                 failed           0.3500           failed         
                     failed          25.0000        1                 
 171                 failed           0.3499           failed         
                     failed          25.0000        1                 
 172                 failed           0.3499           failed         
                     failed          25.0000        1                 
 173                 failed           0.3497           failed         
                     failed          25.0000        1                 
 174                 failed           0.3306           failed         
                     failed          25.0000        1                 
 175                 failed           0.3499           failed         
                     failed          25.0000        1                 
 176                 failed           0.3500           failed         
                     failed          25.0000        1                 
 177                 failed           0.3449           failed         
                     failed          25.0000        1                 
 178                 failed           0.3498           failed         
                     failed          25.0000        1                 
 179                 failed           0.3499           failed         
                     failed          25.0000        1                 
 180                 failed           0.3421           failed         
                     failed          25.0000        1                 
 181                 failed           0.3499           failed         
                     failed          25.0000        1                 
 182                 failed           0.3500           failed         
                     failed          25.0000        1                 
 183                 failed           0.3499           failed         
                     failed          25.0000        1                 
 184                 failed           0.3499           failed         
                     failed          25.0000        1                 
 185                 failed           0.3499           failed         
                     failed          25.0000        1                 
 186                 failed           0.3500           failed         
                     failed          25.0000        1                 
 187                 failed           0.3500           failed         
                     failed          25.0000        1                 
 188                 failed           0.3500           failed         
                     failed          25.0000        1                 
 189                 failed           0.3500           failed         
                     failed          25.0000        1                 
 190                 failed           0.3302           failed         
                     failed          25.0000        1                 
 191                 failed           0.3499           failed         
                     failed          25.0000        1                 
 192                 failed           0.3499           failed         
                     failed          25.0000        1                 
 193                 failed           0.3500           failed         
                     failed          25.0000        1                 
 194                 failed           0.3498           failed         
                     failed          25.0000        1                 
 195                 failed           0.3498           failed         
                     failed          25.0000        1                 
 196                 failed           0.3219           failed         
                     failed          25.0000        1                 
 197                 failed           0.3499           failed         
                     failed          25.0000        1                 
 198                 failed           0.3500           failed         
                     failed          25.0000        1                 
 199                 failed           0.3489           failed         
                     failed          25.0000        1                 
 200                 failed           0.3500           failed         
                     failed          25.0000        1                 
 201                 failed           0.3499           failed         
                     failed          25.0000        1                 
 202                 failed           0.3500           failed         
                     failed          25.0000        1                 
 203                 failed           0.3499           failed         
                     failed          25.0000        1                 
 204                 failed           0.3496           failed         
                     failed          25.0000        1                 
 205                 failed           0.3499           failed         
                     failed          25.0000        1                 
 206                 failed           0.3499           failed         
                     failed          25.0000        1                 
 207                 failed           0.3499           failed         
                     failed          25.0000        1                 
 208                 failed           0.3499           failed         
                     failed          25.0000        1                 
 209                 failed           0.3499           failed         
                     failed          25.0000        1                 
 210                 failed           0.3500           failed         
                     failed          25.0000        1                 
 211                 failed           0.3284           failed         
                     failed          25.0000        1                 
 212                 failed           0.3498           failed         
                     failed          25.0000        1                 
 213                 failed           0.3499           failed         
                     failed          25.0000        1                 
 214                 failed           0.3486           failed         
                     failed          25.0000        1                 
 215                 failed           0.3499           failed         
                     failed          25.0000        1                 
 216                 failed           0.3494           failed         
                     failed          25.0000        1                 
 217                 failed           0.3499           failed         
                     failed          25.0000        1                 
 218                 failed           0.3499           failed         
                     failed          25.0000        1                 
 219                 failed           0.3500           failed         
                     failed          25.0000        1                 
 220                 failed           0.3499           failed         
                     failed          25.0000        1                 
 221                 failed           0.3498           failed         
                     failed          25.0000        1                 
 222                 failed           0.3499           failed         
                     failed          25.0000        1                 
 223                 failed           0.3499           failed         
                     failed          25.0000        1                 
 224                 failed           0.3500           failed         
                     failed          25.0000        1                 
 225                 failed           0.3500           failed         
                     failed          25.0000        1                 
 226                 failed           0.3500           failed         
                     failed          25.0000        1                 
 227                 failed           0.3499           failed         
                     failed          25.0000        1                 
 228                 failed           0.3499           failed         
                     failed          25.0000        1                 
 229                 failed           0.3500           failed         
                     failed          25.0000        1                 
 230                 failed           0.3500           failed         
                     failed          25.0000        1                 
 231                 failed           0.3500           failed         
                     failed          25.0000        1                 
 232                 failed           0.3500           failed         
                     failed          25.0000        1                 
 233                 failed           0.3498           failed         
                     failed          25.0000        1                 
 234                 failed           0.3498           failed         
                     failed          25.0000        1                 
 235                 failed           0.3500           failed         
                     failed          25.0000        1                 
 236                 failed           0.3499           failed         
                     failed          25.0000        1                 
 237                 failed           0.3500           failed         
                     failed          25.0000        1                 
 238                 failed           0.3500           failed         
                     failed          25.0000        1                 
 239                 failed           0.3500           failed         
                     failed          25.0000        1                 
 240                 failed           0.3500           failed         
                     failed          25.0000        1                 
 241                 failed           0.3426           failed         
                     failed          25.0000        1                 
 242                 failed           0.3500           failed         
                     failed          25.0000        1                 
 243                 failed           0.3500           failed         
                     failed          25.0000        1                 
 244                 failed           0.3500           failed         
                     failed          25.0000        1                 
 245                 failed           0.3500           failed         
                     failed          25.0000        1                 
 246                 failed           0.3500           failed         
                     failed          25.0000        1                 
 247                 failed           0.3499           failed         
                     failed          25.0000        1                 
 248                 failed           0.3500           failed         
                     failed          25.0000        1                 
 249                 failed           0.3499           failed         
                     failed          25.0000        1                 
 250                 failed           0.3500           failed         
                     failed          25.0000        1                 
 251                 failed           0.3499           failed         
                     failed          25.0000        1                 
 252                 failed           0.3499           failed         
                     failed          25.0000        1                 
 253                 failed           0.3497           failed         
                     failed          25.0000        1                 
 254                 failed           0.3499           failed         
                     failed          25.0000        1                 
 255                 failed           0.3499           failed         
                     failed          25.0000        1                 
 256                 failed           0.3500           failed         
                     failed          25.0000        1                 
 257                 failed           0.3497           failed         
                     failed          25.0000        1                 
 258                 failed           0.3499           failed         
                     failed          25.0000        1                 
 259                 failed           0.3099           failed         
                     failed          25.0000        1                 
 260                 failed           0.3499           failed         
                     failed          25.0000        1                 
 261                 failed           0.3499           failed         
                     failed          25.0000        1                 
 262                 failed           0.3500           failed         
                     failed          25.0000        1                 
 263                 failed           0.3500           failed         
                     failed          25.0000        1                 
 264                 failed           0.3499           failed         
                     failed          25.0000        1                 
 265                 failed           0.3500           failed         
                     failed          25.0000        1                 
 266                 failed           0.3500           failed         
                     failed          25.0000        1                 
 267                 failed           0.3499           failed         
                     failed          25.0000        1                 
 268                 failed           0.3500           failed         
                     failed          25.0000        1                 
 269                 failed           0.3497           failed         
                     failed          25.0000        1                 
 270                 failed           0.3499           failed         
                     failed          25.0000        1                 
 271                 failed           0.3498           failed         
                     failed          25.0000        1                 
 272                 failed           0.3500           failed         
                     failed          25.0000        1                 
 273                 failed           0.3499           failed         
                     failed          25.0000        1                 
 274                 failed           0.3500           failed         
                     failed          25.0000        1                 
 275                 failed           0.3498           failed         
                     failed          25.0000        1                 
 276                 failed           0.3500           failed         
                     failed          25.0000        1                 
 277                 failed           0.3500           failed         
                     failed          25.0000        1                 
 278                 failed           0.3480           failed         
                     failed          25.0000        1                 
 279                 failed           0.3498           failed         
                     failed          25.0000        1                 
 280                 failed           0.3499           failed         
                     failed          25.0000        1                 
 281                 failed           0.3500           failed         
                     failed          25.0000        1                 
 282                 failed           0.3499           failed         
                     failed          25.0000        1                 
 283                 failed           0.3500           failed         
                     failed          25.0000        1                 
 284                 failed           0.3500           failed         
                     failed          25.0000        1                 
 285                 failed           0.3500           failed         
                     failed          25.0000        1                 
 286                 failed           0.3495           failed         
                     failed          25.0000        1                 
 287                 failed           0.3500           failed         
                     failed          25.0000        1                 
 288                 failed           0.3500           failed         
                     failed          25.0000        1                 
 289                 failed           0.3499           failed         
                     failed          25.0000        1                 
 290                 failed           0.3467           failed         
                     failed          25.0000        1                 
 291                 failed           0.3499           failed         
                     failed          25.0000        1                 
 292                 failed           0.3482           failed         
                     failed          25.0000        1                 
 293                 failed           0.3500           failed         
                     failed          25.0000        1                 
 294                 failed           0.3486           failed         
                     failed          25.0000        1                 
 295                 failed           0.2801           failed         
                     failed          25.0000        1                 
 296                 failed           0.3498           failed         
                     failed          25.0000        1                 
 297                 failed           0.3499           failed         
                     failed          25.0000        1                 
 298                 failed           0.3499           failed         
                     failed          25.0000        1                 
 299                 failed           0.3500           failed         
                     failed          25.0000        1                 
 300                 failed           0.3499           failed         
                     failed          25.0000        1                 
 301                 failed           0.3500           failed         
                     failed          25.0000        1                 
 302                 failed           0.3498           failed         
                     failed          25.0000        1                 
 303                 failed           0.3499           failed         
                     failed          25.0000        1                 
 304                 failed           0.3499           failed         
                     failed          25.0000        1                 
 305                 failed           0.3500           failed         
                     failed          25.0000        1                 
 306                 failed           0.3500           failed         
                     failed          25.0000        1                 
 307                 failed           0.3500           failed         
                     failed          25.0000        1                 
 308                 failed           0.3499           failed         
                     failed          25.0000        1                 
 309                 failed           0.3499           failed         
                     failed          25.0000        1                 
 310                 failed           0.3499           failed         
                     failed          25.0000        1                 
 311                 failed           0.3500           failed         
                     failed          25.0000        1                 
 312                 failed           0.3498           failed         
                     failed          25.0000        1                 
 313                 failed           0.3499           failed         
                     failed          25.0000        1                 
 314                 failed           0.3498           failed         
                     failed          25.0000        1                 
 315                 failed           0.3499           failed         
                     failed          25.0000        1                 
 316                 failed           0.3499           failed         
                     failed          25.0000        1                 
 317                 failed           0.3500           failed         
                     failed          25.0000        1                 
 318                 failed           0.3499           failed         
                     failed          25.0000        1                 
 319                 failed           0.3499           failed         
                     failed          25.0000        1                 
 320                 failed           0.3499           failed         
                     failed          25.0000        1                 
 321                 failed           0.3499           failed         
                     failed          25.0000        1                 
 322                 failed           0.3499           failed         
                     failed          25.0000        1                 
 323                 failed           0.3500           failed         
                     failed          25.0000        1                 
 324                 failed           0.3498           failed         
                     failed          25.0000        1                 
 325                 failed           0.3445           failed         
                     failed          25.0000        1                 
 326                 failed           0.3477           failed         
                     failed          25.0000        1                 
 327                 failed           0.3499           failed         
                     failed          25.0000        1                 
 328                 failed           0.3499           failed         
                     failed          25.0000        1                 
 329                 failed           0.3500           failed         
                     failed          25.0000        1                 
 330                 failed           0.3499           failed         
                     failed          25.0000        1                 
 331                 failed           0.3500           failed         
                     failed          25.0000        1                 
 332                 failed           0.3500           failed         
                     failed          25.0000        1                 
 333                 failed           0.3500           failed         
                     failed          25.0000        1                 
 334                 failed           0.3500           failed         
                     failed          25.0000        1                 
 335                 failed           0.3499           failed         
                     failed          25.0000        1                 
 336                 failed           0.3499           failed         
                     failed          25.0000        1                 
 337                 failed           0.3425           failed         
                     failed          25.0000        1                 
 338                 failed           0.3500           failed         
                     failed          25.0000        1                 
 339                 failed           0.3498           failed         
                     failed          25.0000        1                 
 340                 failed           0.3499           failed         
                     failed          25.0000        1                 
 341                 failed           0.3499           failed         
                     failed          25.0000        1                 
 342                 failed           0.3499           failed         
                     failed          25.0000        1                 
 343                 failed           0.3500           failed         
                     failed          25.0000        1                 
 344                 failed           0.3499           failed         
                     failed          25.0000        1                 
 345                 failed           0.3500           failed         
                     failed          25.0000        1                 
 346                 failed           0.3499           failed         
                     failed          25.0000        1                 
 347                 failed           0.3498           failed         
                     failed          25.0000        1                 
 348                 failed           0.3500           failed         
                     failed          25.0000        1                 
 349                 failed           0.3499           failed         
                     failed          25.0000        1                 
 350                 failed           0.3499           failed         
                     failed          25.0000        1                 
 351                 failed           0.3500           failed         
                     failed          25.0000        1                 
 352                 failed           0.3499           failed         
                     failed          25.0000        1                 
 353                 failed           0.3498           failed         
                     failed          25.0000        1                 
 354                 failed           0.3500           failed         
                     failed          25.0000        1                 
 355                 failed           0.3500           failed         
                     failed          25.0000        1                 
 356                 failed           0.3499           failed         
                     failed          25.0000        1                 
 357                 failed           0.3499           failed         
                     failed          25.0000        1                 
 358                 failed           0.3500           failed         
                     failed          25.0000        1                 
 359                 failed           0.3499           failed         
                     failed          25.0000        1                 
 360                 failed           0.3499           failed         
                     failed          25.0000        1                 
 361                 failed           0.3500           failed         
                     failed          25.0000        1                 
 362                 failed           0.3500           failed         
                     failed          25.0000        1                 
 363                 failed           0.3499           failed         
                     failed          25.0000        1                 
 364                 failed           0.3500           failed         
                     failed          25.0000        1                 
 365                 failed           0.3499           failed         
                     failed          25.0000        1                 
 366                 failed           0.3500           failed         
                     failed          25.0000        1                 
 367                 failed           0.3499           failed         
                     failed          25.0000        1                 
 368                 failed           0.3499           failed         
                     failed          25.0000        1                 
 369                 failed           0.3497           failed         
                     failed          25.0000        1                 
 370                 failed           0.3500           failed         
                     failed          25.0000        1                 
 371                 failed           0.3499           failed         
                     failed          25.0000        1                 
 372                 failed           0.3499           failed         
                     failed          25.0000        1                 
 373                 failed           0.3499           failed         
                     failed          25.0000        1                 
 374                 failed           0.3499           failed         
                     failed          25.0000        1                 
 375                 failed           0.3499           failed         
                     failed          25.0000        1                 
 376                 failed           0.3500           failed         
                     failed          25.0000        1                 
 377                 failed           0.3498           failed         
                     failed          25.0000        1                 
 378                 failed           0.3499           failed         
                     failed          25.0000        1                 
 379                 failed           0.3500           failed         
                     failed          25.0000        1                 
 380                 failed           0.3499           failed         
                     failed          25.0000        1                 
 381                 failed           0.3499           failed         
                     failed          25.0000        1                 
 382                 failed           0.3500           failed         
                     failed          25.0000        1                 
 383                 failed           0.3341           failed         
                     failed          25.0000        1                 
 384                 failed           0.3498           failed         
                     failed          25.0000        1                 
 385                 failed           0.3500           failed         
                     failed          25.0000        1                 
 386                 failed           0.3499           failed         
                     failed          25.0000        1                 
 387                 failed           0.3499           failed         
                     failed          25.0000        1                 
 388                 failed           0.3499           failed         
                     failed          25.0000        1                 
 389                 failed           0.3498           failed         
                     failed          25.0000        1                 
 390                 failed           0.3431           failed         
                     failed          25.0000        1                 
 391                 failed           0.3499           failed         
                     failed          25.0000        1                 
 392                 failed           0.3500           failed         
                     failed          25.0000        1                 
 393                 failed           0.3499           failed         
                     failed          25.0000        1                 
 394                 failed           0.3499           failed         
                     failed          25.0000        1                 
 395                 failed           0.3499           failed         
                     failed          25.0000        1                 
 396                 failed           0.3500           failed         
                     failed          25.0000        1                 
 397                 failed           0.3402           failed         
                     failed          25.0000        1                 
 398                 failed           0.3499           failed         
                     failed          25.0000        1                 
 399                 failed           0.3500           failed         
                     failed          25.0000        1                 
 400                 failed           0.3499           failed         
                     failed          25.0000        1                 
 401                 failed           0.3500           failed         
                     failed          25.0000        1                 
 402                 failed           0.3498           failed         
                     failed          25.0000        1                 
 403                 failed           0.3499           failed         
                     failed          25.0000        1                 
 404                 failed           0.3498           failed         
                     failed          25.0000        1                 
 405                 failed           0.3499           failed         
                     failed          25.0000        1                 
 406                 failed           0.3498           failed         
                     failed          25.0000        1                 
 407                 failed           0.3499           failed         
                     failed          25.0000        1                 
 408                 failed           0.3499           failed         
                     failed          25.0000        1                 
 409                 failed           0.3500           failed         
                     failed          25.0000        1                 
 410                 failed           0.3498           failed         
                     failed          25.0000        1                 
 411                 failed           0.3478           failed         
                     failed          25.0000        1                 
 412                 failed           0.3499           failed         
                     failed          25.0000        1                 
 413                 failed           0.3500           failed         
                     failed          25.0000        1                 
 414                 failed           0.3499           failed         
                     failed          25.0000        1                 
 415                 failed           0.3499           failed         
                     failed          25.0000        1                 
 416                 failed           0.3499           failed         
                     failed          25.0000        1                 
 417                 failed           0.3500           failed         
                     failed          25.0000        1                 
 418                 failed           0.3499           failed         
                     failed          25.0000        1                 
 419                 failed           0.3498           failed         
                     failed          25.0000        1                 
 420                 failed           0.3500           failed         
                     failed          25.0000        1                 
 421                 failed           0.3485           failed         
                     failed          25.0000        1                 
 422                 failed           0.3500           failed         
                     failed          25.0000        1                 
 423                 failed           0.3500           failed         
                     failed          25.0000        1                 
 424                 failed           0.3498           failed         
                     failed          25.0000        1                 
 425                 failed           0.3500           failed         
                     failed          25.0000        1                 
 426                 failed           0.3499           failed         
                     failed          25.0000        1                 
 427                 failed           0.3499           failed         
                     failed          25.0000        1                 
 428                 failed           0.3493           failed         
                     failed          25.0000        1                 
 429                 failed           0.3493           failed         
                     failed          25.0000        1                 
 430                 failed           0.3499           failed         
                     failed          25.0000        1                 
 431                 failed           0.3499           failed         
                     failed          25.0000        1                 
 432                 failed           0.3500           failed         
                     failed          25.0000        1                 
 433                 failed           0.3498           failed         
                     failed          25.0000        1                 
 434                 failed           0.3498           failed         
                     failed          25.0000        1                 
 435                 failed           0.3500           failed         
                     failed          25.0000        1                 
 436                 failed           0.3499           failed         
                     failed          25.0000        1                 
 437                 failed           0.3497           failed         
                     failed          25.0000        1                 
 438                 failed           0.3499           failed         
                     failed          25.0000        1                 
 439                 failed           0.3498           failed         
                     failed          25.0000        1                 
 440                 failed           0.3499           failed         
                     failed          25.0000        1                 
 441                 failed           0.3499           failed         
                     failed          25.0000        1                 
 442                 failed           0.3500           failed         
                     failed          25.0000        1                 
 443                 failed           0.3499           failed         
                     failed          25.0000        1                 
 444                 failed           0.3500           failed         
                     failed          25.0000        1                 
 445                 failed           0.3498           failed         
                     failed          25.0000        1                 
 446                 failed           0.3177           failed         
                     failed          25.0000        1                 
 447                 failed           0.3500           failed         
                     failed          25.0000        1                 
 448                 failed           0.3497           failed         
                     failed          25.0000        1                 
 449                 failed           0.3499           failed         
                     failed          25.0000        1                 
 450                 failed           0.3499           failed         
                     failed          25.0000        1                 
 451                 failed           0.3500           failed         
                     failed          25.0000        1                 
 452                 failed           0.3498           failed         
                     failed          25.0000        1                 
 453                 failed           0.3499           failed         
                     failed          25.0000        1                 
 454                 failed           0.3307           failed         
                     failed          25.0000        1                 
 455                 failed           0.3499           failed         
                     failed          25.0000        1                 
 456                 failed           0.3500           failed         
                     failed          25.0000        1                 
 457                 failed           0.3500           failed         
                     failed          25.0000        1                 
 458                 failed           0.3500           failed         
                     failed          25.0000        1                 
 459                 failed           0.3498           failed         
                     failed          25.0000        1                 
 460                 failed           0.3466           failed         
                     failed          25.0000        1                 
 461                 failed           0.3500           failed         
                     failed          25.0000        1                 
 462                 failed           0.3499           failed         
                     failed          25.0000        1                 
 463                 failed           0.3499           failed         
                     failed          25.0000        1                 
 464                 failed           0.3499           failed         
                     failed          25.0000        1                 
 465                 failed           0.3500           failed         
                     failed          25.0000        1                 
 466                 failed           0.3499           failed         
                     failed          25.0000        1                 
 467                 failed           0.3499           failed         
                     failed          25.0000        1                 
 468                 failed           0.3499           failed         
                     failed          25.0000        1                 
 469                 failed           0.3500           failed         
                     failed          25.0000        1                 
 470                 failed           0.3498           failed         
                     failed          25.0000        1                 
 471                 failed           0.3500           failed         
                     failed          25.0000        1                 
 472                 failed           0.3499           failed         
                     failed          25.0000        1                 
 473                 failed           0.3499           failed         
                     failed          25.0000        1                 
 474                 failed           0.3498           failed         
                     failed          25.0000        1                 
 475                 failed           0.3495           failed         
                     failed          25.0000        1                 
 476                 failed           0.3499           failed         
                     failed          25.0000        1                 
 477                 failed           0.3499           failed         
                     failed          25.0000        1                 
 478                 failed           0.3479           failed         
                     failed          25.0000        1                 
 479                 failed           0.3499           failed         
                     failed          25.0000        1                 
 480                 failed           0.3487           failed         
                     failed          25.0000        1                 
 481                 failed           0.3491           failed         
                     failed          25.0000        1                 
 482                 failed           0.3499           failed         
                     failed          25.0000        1                 
 483                 failed           0.3499           failed         
                     failed          25.0000        1                 
 484                 failed           0.3498           failed         
                     failed          25.0000        1                 
 485                 failed           0.3499           failed         
                     failed          25.0000        1                 
 486                 failed           0.3499           failed         
                     failed          25.0000        1                 
 487                 failed           0.3500           failed         
                     failed          25.0000        1                 
 488                 failed           0.3499           failed         
                     failed          25.0000        1                 
 489                 failed           0.3500           failed         
                     failed          25.0000        1                 
 490                 failed           0.3499           failed         
                     failed          25.0000        1                 
 491                 failed           0.3499           failed         
                     failed          25.0000        1                 
 492                 failed           0.3500           failed         
                     failed          25.0000        1                 
 493                 failed           0.3499           failed         
                     failed          25.0000        1                 
 494                 failed           0.3499           failed         
                     failed          25.0000        1                 
 495                 failed           0.3499           failed         
                     failed          25.0000        1                 
 496                 failed           0.3499           failed         
                     failed          25.0000        1                 
 497                 failed           0.3499           failed         
                     failed          25.0000        1                 
 498                 failed           0.3499           failed         
                     failed          25.0000        1                 
 499                 failed           0.3499           failed         
                     failed          25.0000        1                 
 500                 failed           0.3497           failed         
                     failed          25.0000        1                 
 501                 failed           0.3499           failed         
                     failed          25.0000        1                 
 502                 failed           0.3500           failed         
                     failed          25.0000        1                 
 503                 failed           0.3497           failed         
                     failed          25.0000        1                 
 504                 failed           0.3499           failed         
                     failed          25.0000        1                 
 505                 failed           0.3498           failed         
                     failed          25.0000        1                 
 506                 failed           0.3499           failed         
                     failed          25.0000        1                 
 507                 failed           0.3499           failed         
                     failed          25.0000        1                 
 508                 failed           0.3500           failed         
                     failed          25.0000        1                 
 509                 failed           0.3500           failed         
                     failed          25.0000        1                 
 510                 failed           0.3500           failed         
                     failed          25.0000        1                 
 511                 failed           0.3499           failed         
                     failed          25.0000        1                 
 512                 failed           0.3499           failed         
                     failed          25.0000        1                 
 513                 failed           0.3495           failed         
                     failed          25.0000        1                 
 514                 failed           0.3475           failed         
                     failed          25.0000        1                 
 515                 failed           0.3498           failed         
                     failed          25.0000        1                 
 516                 failed           0.3500           failed         
                     failed          25.0000        1                 
 517                 failed           0.3500           failed         
                     failed          25.0000        1                 
 518                 failed           0.3499           failed         
                     failed          25.0000        1                 
 519                 failed           0.3500           failed         
                     failed          25.0000        1                 
 520                 failed           0.3499           failed         
                     failed          25.0000        1                 
 521                 failed           0.3499           failed         
                     failed          25.0000        1                 
 522                 failed           0.3500           failed         
                     failed          25.0000        1                 
 523                 failed           0.3500           failed         
                     failed          25.0000        1                 
 524                 failed           0.3499           failed         
                     failed          25.0000        1                 
 525                 failed           0.3500           failed         
                     failed          25.0000        1                 
 526                 failed           0.3497           failed         
                     failed          25.0000        1                 
 527                 failed           0.3500           failed         
                     failed          25.0000        1                 
 528                 failed           0.3498           failed         
                     failed          25.0000        1                 
 529                 failed           0.3499           failed         
                     failed          25.0000        1                 
 530                 failed           0.3498           failed         
                     failed          25.0000        1                 
 531                 failed           0.3500           failed         
                     failed          25.0000        1                 
 532                 failed           0.3500           failed         
                     failed          25.0000        1                 
 533                 failed           0.3498           failed         
                     failed          25.0000        1                 
 534                 failed           0.3499           failed         
                     failed          25.0000        1                 
 535                 failed           0.3499           failed         
                     failed          25.0000        1                 
 536                 failed           0.3496           failed         
                     failed          25.0000        1                 
 537                 failed           0.3492           failed         
                     failed          25.0000        1                 
 538                 failed           0.3499           failed         
                     failed          25.0000        1                 
 539                 failed           0.3500           failed         
                     failed          25.0000        1                 
 540                 failed           0.3499           failed         
                     failed          25.0000        1                 
 541                 failed           0.3498           failed         
                     failed          25.0000        1                 
 542                 failed           0.3500           failed         
                     failed          25.0000        1                 
 543                 failed           0.3500           failed         
                     failed          25.0000        1                 
 544                 failed           0.3499           failed         
                     failed          25.0000        1                 
 545                 failed           0.3499           failed         
                     failed          25.0000        1                 
 546                 failed           0.3499           failed         
                     failed          25.0000        1                 
 547                 failed           0.3499           failed         
                     failed          25.0000        1                 
 548                 failed           0.3500           failed         
                     failed          25.0000        1                 
 549                 failed           0.3500           failed         
                     failed          25.0000        1                 
 550                 failed           0.3500           failed         
                     failed          25.0000        1                 
 551                 failed           0.3499           failed         
                     failed          25.0000        1                 
 552                 failed           0.3499           failed         
                     failed          25.0000        1                 
 553                 failed           0.3500           failed         
                     failed          25.0000        1                 
 554                 failed           0.3497           failed         
                     failed          25.0000        1                 
 555                 failed           0.3500           failed         
                     failed          25.0000        1                 
 556                 failed           0.3500           failed         
                     failed          25.0000        1                 
 557                 failed           0.3499           failed         
                     failed          25.0000        1                 
 558                 failed           0.3499           failed         
                     failed          25.0000        1                 
 559                 failed           0.3499           failed         
                     failed          25.0000        1                 
 560                 failed           0.3500           failed         
                     failed          25.0000        1                 
 561                 failed           0.3500           failed         
                     failed          25.0000        1                 
 562                 failed           0.3499           failed         
[...]
                     failed          25.0000        1                 
 9861                failed           0.3500           failed         
                     failed          25.0000        1                 
 9862                failed           0.3498           failed         
                     failed          25.0000        1                 
 9863                failed           0.3499           failed         
                     failed          25.0000        1                 
 9864                failed           0.3499           failed         
                     failed          25.0000        1                 
 9865                failed           0.3499           failed         
                     failed          25.0000        1                 
 9866                failed           0.3499           failed         
                     failed          25.0000        1                 
 9867                failed           0.3500           failed         
                     failed          25.0000        1                 
 9868                failed           0.3499           failed         
                     failed          25.0000        1                 
 9869                failed           0.3492           failed         
                     failed          25.0000        1                 
 9870                failed           0.3500           failed         
                     failed          25.0000        1                 
 9871                failed           0.3492           failed         
                     failed          25.0000        1                 
 9872                failed           0.3496           failed         
                     failed          25.0000        1                 
 9873                failed           0.3499           failed         
                     failed          25.0000        1                 
 9874                failed           0.3499           failed         
                     failed          25.0000        1                 
 9875                failed           0.3494           failed         
                     failed          25.0000        1                 
 9876                failed           0.3499           failed         
                     failed          25.0000        1                 
 9877                failed           0.3499           failed         
                     failed          25.0000        1                 
 9878                failed           0.3499           failed         
                     failed          25.0000        1                 
 9879                failed           0.3500           failed         
                     failed          25.0000        1                 
 9880                failed           0.3494           failed         
                     failed          25.0000        1                 
 9881                failed           0.3499           failed         
                     failed          25.0000        1                 
 9882                failed           0.3499           failed         
                     failed          25.0000        1                 
 9883                failed           0.3500           failed         
                     failed          25.0000        1                 
 9884                failed           0.3489           failed         
                     failed          25.0000        1                 
 9885                failed           0.3498           failed         
                     failed          25.0000        1                 
 9886                failed           0.3500           failed         
                     failed          25.0000        1                 
 9887                failed           0.3499           failed         
                     failed          25.0000        1                 
 9888                failed           0.3499           failed         
                     failed          25.0000        1                 
 9889                failed           0.3499           failed         
                     failed          25.0000        1                 
 9890                failed           0.3499           failed         
                     failed          25.0000        1                 
 9891                failed           0.3499           failed         
                     failed          25.0000        1                 
 9892                failed           0.3500           failed         
                     failed          25.0000        1                 
 9893                failed           0.3499           failed         
                     failed          25.0000        1                 
 9894                failed           0.3499           failed         
                     failed          25.0000        1                 
 9895                failed           0.3499           failed         
                     failed          25.0000        1                 
 9896                failed           0.3500           failed         
                     failed          25.0000        1                 
 9897                failed           0.3499           failed         
                     failed          25.0000        1                 
 9898                failed           0.3499           failed         
                     failed          25.0000        1                 
 9899                failed           0.3500           failed         
                     failed          25.0000        1                 
 9900                failed           0.3500           failed         
                     failed          25.0000        1                 
 9901                failed           0.3500           failed         
                     failed          25.0000        1                 
 9902                failed           0.3499           failed         
                     failed          25.0000        1                 
 9903                failed           0.3500           failed         
                     failed          25.0000        1                 
 9904                failed           0.3498           failed         
                     failed          25.0000        1                 
 9905                failed           0.3500           failed         
                     failed          25.0000        1                 
 9906                failed           0.3500           failed         
                     failed          25.0000        1                 
 9907                failed           0.3499           failed         
                     failed          25.0000        1                 
 9908                failed           0.3485           failed         
                     failed          25.0000        1                 
 9909                failed           0.3500           failed         
                     failed          25.0000        1                 
 9910                failed           0.3500           failed         
                     failed          25.0000        1                 
 9911                failed           0.3498           failed         
                     failed          25.0000        1                 
 9912                failed           0.3500           failed         
                     failed          25.0000        1                 
 9913                failed           0.3500           failed         
                     failed          25.0000        1                 
 9914                failed           0.3499           failed         
                     failed          25.0000        1                 
 9915                failed           0.3499           failed         
                     failed          25.0000        1                 
 9916                failed           0.3499           failed         
                     failed          25.0000        1                 
 9917                failed           0.3496           failed         
                     failed          25.0000        1                 
 9918                failed           0.3470           failed         
                     failed          25.0000        1                 
 9919                failed           0.3499           failed         
                     failed          25.0000        1                 
 9920                failed           0.3499           failed         
                     failed          25.0000        1                 
 9921                failed           0.3500           failed         
                     failed          25.0000        1                 
 9922                failed           0.3500           failed         
                     failed          25.0000        1                 
 9923                failed           0.3498           failed         
                     failed          25.0000        1                 
 9924                failed           0.3499           failed         
                     failed          25.0000        1                 
 9925                failed           0.3500           failed         
                     failed          25.0000        1                 
 9926                failed           0.3498           failed         
                     failed          25.0000        1                 
 9927                failed           0.3498           failed         
                     failed          25.0000        1                 
 9928                failed           0.3499           failed         
                     failed          25.0000        1                 
 9929                failed           0.3499           failed         
                     failed          25.0000        1                 
 9930                failed           0.3499           failed         
                     failed          25.0000        1                 
 9931                failed           0.3499           failed         
                     failed          25.0000        1                 
 9932                failed           0.3500           failed         
                     failed          25.0000        1                 
 9933                failed           0.3499           failed         
                     failed          25.0000        1                 
 9934                failed           0.3499           failed         
                     failed          25.0000        1                 
 9935                failed           0.3499           failed         
                     failed          25.0000        1                 
 9936                failed           0.3499           failed         
                     failed          25.0000        1                 
 9937                failed           0.3500           failed         
                     failed          25.0000        1                 
 9938                failed           0.3498           failed         
                     failed          25.0000        1                 
 9939                failed           0.3500           failed         
                     failed          25.0000        1                 
 9940                failed           0.3499           failed         
                     failed          25.0000        1                 
 9941                failed           0.3499           failed         
                     failed          25.0000        1                 
 9942                failed           0.3498           failed         
                     failed          25.0000        1                 
 9943                failed           0.3499           failed         
                     failed          25.0000        1                 
 9944                failed           0.3499           failed         
                     failed          25.0000        1                 
 9945                failed           0.3500           failed         
                     failed          25.0000        1                 
 9946                failed           0.3499           failed         
                     failed          25.0000        1                 
 9947                failed           0.3499           failed         
                     failed          25.0000        1                 
 9948                failed           0.3499           failed         
                     failed          25.0000        1                 
 9949                failed           0.3500           failed         
                     failed          25.0000        1                 
 9950                failed           0.3499           failed         
                     failed          25.0000        1                 
 9951                failed           0.3499           failed         
                     failed          25.0000        1                 
 9952                failed           0.3499           failed         
                     failed          25.0000        1                 
 9953                failed           0.3500           failed         
                     failed          25.0000        1                 
 9954                failed           0.3500           failed         
                     failed          25.0000        1                 
 9955                failed           0.3378           failed         
                     failed          25.0000        1                 
 9956                failed           0.3500           failed         
                     failed          25.0000        1                 
 9957                failed           0.3498           failed         
                     failed          25.0000        1                 
 9958                failed           0.3498           failed         
                     failed          25.0000        1                 
 9959                failed           0.3500           failed         
                     failed          25.0000        1                 
 9960                failed           0.3499           failed         
                     failed          25.0000        1                 
 9961                failed           0.3498           failed         
                     failed          25.0000        1                 
 9962                failed           0.3499           failed         
                     failed          25.0000        1                 
 9963                failed           0.3500           failed         
                     failed          25.0000        1                 
 9964                failed           0.3500           failed         
                     failed          25.0000        1                 
 9965                failed           0.3499           failed         
                     failed          25.0000        1                 
 9966                failed           0.3500           failed         
                     failed          25.0000        1                 
 9967                failed           0.3500           failed         
                     failed          25.0000        1                 
 9968                failed           0.3500           failed         
                     failed          25.0000        1                 
 9969                failed           0.3500           failed         
                     failed          25.0000        1                 
 9970                failed           0.3499           failed         
                     failed          25.0000        1                 
 9971                failed           0.3497           failed         
                     failed          25.0000        1                 
 9972                failed           0.3499           failed         
                     failed          25.0000        1                 
 9973                failed           0.3500           failed         
                     failed          25.0000        1                 
 9974                failed           0.3500           failed         
                     failed          25.0000        1                 
 9975                failed           0.3479           failed         
                     failed          25.0000        1                 
 9976                failed           0.3499           failed         
                     failed          25.0000        1                 
 9977                failed           0.3496           failed         
                     failed          25.0000        1                 
 9978                failed           0.3498           failed         
                     failed          25.0000        1                 
 9979                failed           0.3499           failed         
                     failed          25.0000        1                 
 9980                failed           0.3500           failed         
                     failed          25.0000        1                 
 9981                failed           0.3499           failed         
                     failed          25.0000        1                 
 9982                failed           0.3500           failed         
                     failed          25.0000        1                 
 9983                failed           0.3499           failed         
                     failed          25.0000        1                 
 9984                failed           0.3499           failed         
                     failed          25.0000        1                 
 9985                failed           0.3500           failed         
                     failed          25.0000        1                 
 9986                failed           0.3499           failed         
                     failed          25.0000        1                 
 9987                failed           0.3499           failed         
                     failed          25.0000        1                 
 9988                failed           0.3500           failed         
                     failed          25.0000        1                 
 9989                failed           0.3498           failed         
                     failed          25.0000        1                 
 9990                failed           0.3498           failed         
                     failed          25.0000        1                 
 9991                failed           0.3500           failed         
                     failed          25.0000        1                 
 9992                failed           0.3495           failed         
                     failed          25.0000        1                 
 9993                failed           0.3499           failed         
                     failed          25.0000        1                 
 9994                failed           0.3499           failed         
                     failed          25.0000        1                 
 9995                failed           0.3499           failed         
                     failed          25.0000        1                 
 9996                failed           0.3499           failed         
                     failed          25.0000        1                 
 9997                failed           0.3500           failed         
                     failed          25.0000        1                 
 9998                failed           0.3499           failed         
                     failed          25.0000        1                 
 9999                failed           0.3499           failed         
                     failed          25.0000        1                 
 10000               failed           0.3497           failed         
                     failed          25.0000        1                 
