$DATA1 SOURCE='HSPICE' VERSION='F-2011.09 64-BIT'
.TITLE '* include model and subckts'
 index            delay_write1     delay_read1      delay_write0      
                  delay_read0      temper           alter#            
 1                 8.762e-10        4.886e-10        4.449e-10        
                   4.456e-10         25.0000        1                 
 2                 5.713e-10        4.913e-10        4.968e-10        
                   3.852e-10         25.0000        1                 
 3                 6.974e-10        6.124e-10        5.104e-10        
                   6.470e-10         25.0000        1                 
 4                 7.470e-10        5.459e-10        4.207e-10        
                   5.562e-10         25.0000        1                 
 5                 6.320e-10        4.974e-10        4.287e-10        
                   5.634e-10         25.0000        1                 
 6                 6.571e-10        4.871e-10        4.411e-10        
                   6.806e-10         25.0000        1                 
 7                 8.465e-10        5.720e-10        4.582e-10        
                   5.568e-10         25.0000        1                 
 8                 6.557e-10        4.444e-10        4.504e-10        
                   5.229e-10         25.0000        1                 
 9                 7.915e-10        5.667e-10        6.860e-10        
                   5.358e-10         25.0000        1                 
 10                7.938e-10        4.655e-10        4.392e-10        
                   4.404e-10         25.0000        1                 
 11                7.331e-10        5.272e-10        4.890e-10        
                   5.231e-10         25.0000        1                 
 12                8.222e-10        5.532e-10        4.237e-10        
                   4.509e-10         25.0000        1                 
 13                8.588e-10        4.997e-10        4.933e-10        
                   4.488e-10         25.0000        1                 
 14                1.098e-09        4.936e-10        4.335e-10        
                   4.199e-10         25.0000        1                 
 15                9.354e-10        5.539e-10        4.043e-10        
                   4.946e-10         25.0000        1                 
 16                7.217e-10        5.709e-10        4.697e-10        
                   5.340e-10         25.0000        1                 
 17                5.839e-10        4.690e-10        5.077e-10        
                   4.798e-10         25.0000        1                 
 18                9.283e-10        6.461e-10        4.669e-10        
                   5.061e-10         25.0000        1                 
 19                9.432e-10        5.723e-10        4.538e-10        
                   4.996e-10         25.0000        1                 
 20                6.223e-10        6.818e-10        4.433e-10        
                   7.165e-10         25.0000        1                 
 21                7.847e-10        5.368e-10        4.464e-10        
                   6.443e-10         25.0000        1                 
 22                9.031e-10        7.858e-10        4.706e-10        
                   6.592e-10         25.0000        1                 
 23                6.923e-10        5.386e-10        4.885e-10        
                   4.210e-10         25.0000        1                 
 24                6.499e-10        6.272e-10        4.363e-10        
                   5.308e-10         25.0000        1                 
 25                8.850e-10        5.630e-10        4.617e-10        
                   4.753e-10         25.0000        1                 
 26                7.646e-10        5.709e-10        5.213e-10        
                   4.379e-10         25.0000        1                 
 27                6.381e-10        5.075e-10        3.647e-10        
                   3.885e-10         25.0000        1                 
 28                6.594e-10        4.898e-10        4.741e-10        
                   5.669e-10         25.0000        1                 
 29                7.357e-10        6.611e-10        5.419e-10        
                   9.351e-10         25.0000        1                 
 30                8.630e-10        6.092e-10        5.151e-10        
                   5.205e-10         25.0000        1                 
 31                9.560e-10        4.281e-10        6.226e-10        
                   3.748e-10         25.0000        1                 
 32                1.029e-09        4.718e-10        3.791e-10        
                   5.424e-10         25.0000        1                 
 33                8.160e-10        6.631e-10        4.138e-10        
                   4.737e-10         25.0000        1                 
 34                7.157e-10        5.049e-10        3.904e-10        
                   9.155e-10         25.0000        1                 
 35                6.424e-10        6.378e-10        4.712e-10        
                   5.644e-10         25.0000        1                 
 36                6.828e-10        5.432e-10        4.787e-10        
                   4.564e-10         25.0000        1                 
 37                6.299e-10        5.217e-10        4.978e-10        
                   6.536e-10         25.0000        1                 
 38                1.044e-09        6.434e-10        4.477e-10        
                   5.991e-10         25.0000        1                 
 39                6.555e-10        5.179e-10        4.731e-10        
                   4.194e-10         25.0000        1                 
 40                7.106e-10        6.142e-10        4.295e-10        
                   6.322e-10         25.0000        1                 
 41                7.088e-10        5.244e-10        4.618e-10        
                   6.390e-10         25.0000        1                 
 42                7.093e-10        6.032e-10        4.935e-10        
                   4.554e-10         25.0000        1                 
 43                7.278e-10        6.301e-10        4.570e-10        
                   5.278e-10         25.0000        1                 
 44                6.610e-10        6.198e-10        3.954e-10        
                   5.358e-10         25.0000        1                 
 45                9.763e-10        5.603e-10        4.045e-10        
                   5.509e-10         25.0000        1                 
 46                6.045e-10        5.076e-10        3.524e-10        
                   4.536e-10         25.0000        1                 
 47                7.081e-10        4.659e-10        4.170e-10        
                   3.738e-10         25.0000        1                 
 48                8.190e-10        5.963e-10        5.311e-10        
                   5.270e-10         25.0000        1                 
 49                7.334e-10        6.190e-10        4.679e-10        
                   6.049e-10         25.0000        1                 
 50                6.577e-10        5.272e-10        4.162e-10        
                   4.159e-10         25.0000        1                 
 51                7.424e-10        5.381e-10        4.529e-10        
                   4.687e-10         25.0000        1                 
 52                6.955e-10        6.351e-10        4.746e-10        
                   4.933e-10         25.0000        1                 
 53                6.476e-10        4.612e-10        3.695e-10        
                   3.782e-10         25.0000        1                 
 54                7.079e-10        5.227e-10        4.718e-10        
                   4.570e-10         25.0000        1                 
 55                6.481e-10        5.310e-10        4.910e-10        
                   4.663e-10         25.0000        1                 
 56                5.759e-10        5.892e-10        4.382e-10        
                   4.451e-10         25.0000        1                 
 57                6.951e-10        6.305e-10        3.974e-10        
                   4.727e-10         25.0000        1                 
 58                6.432e-10        7.212e-10        5.318e-10        
                   5.241e-10         25.0000        1                 
 59                1.085e-09        6.021e-10        6.251e-10        
                   5.888e-10         25.0000        1                 
 60                6.784e-10        5.951e-10        5.235e-10        
                   3.853e-10         25.0000        1                 
 61                8.362e-10        5.385e-10        4.766e-10        
                   6.162e-10         25.0000        1                 
 62                6.504e-10        5.811e-10        5.137e-10        
                   6.143e-10         25.0000        1                 
 63                8.160e-10        4.550e-10        4.895e-10        
                   5.118e-10         25.0000        1                 
 64                6.365e-10        5.247e-10        4.332e-10        
                   6.234e-10         25.0000        1                 
 65                9.414e-10        6.124e-10        4.810e-10        
                   4.203e-10         25.0000        1                 
 66                7.308e-10        4.657e-10        4.423e-10        
                   4.041e-10         25.0000        1                 
 67                6.276e-10        4.713e-10        3.657e-10        
                   4.189e-10         25.0000        1                 
 68                6.789e-10        6.114e-10        4.332e-10        
                   5.905e-10         25.0000        1                 
 69                5.409e-10        5.570e-10        5.028e-10        
                   4.273e-10         25.0000        1                 
 70                6.370e-10        6.202e-10        4.540e-10        
                   5.406e-10         25.0000        1                 
 71                9.157e-10        5.967e-10        4.855e-10        
                   6.203e-10         25.0000        1                 
 72                7.131e-10        5.147e-10        4.414e-10        
                   3.415e-10         25.0000        1                 
 73                6.974e-10        5.764e-10        4.983e-10        
                   4.486e-10         25.0000        1                 
 74                7.419e-10        5.597e-10        4.098e-10        
                   6.551e-10         25.0000        1                 
 75                6.056e-10        4.916e-10        4.504e-10        
                   4.599e-10         25.0000        1                 
 76                6.763e-10        6.122e-10        5.737e-10        
                   5.923e-10         25.0000        1                 
 77                7.303e-10        5.700e-10        5.022e-10        
                   5.187e-10         25.0000        1                 
 78                7.169e-10        5.279e-10        4.495e-10        
                   5.756e-10         25.0000        1                 
 79                7.338e-10        5.773e-10        4.232e-10        
                   6.310e-10         25.0000        1                 
 80                7.478e-10        4.515e-10        4.616e-10        
                   4.619e-10         25.0000        1                 
 81                9.825e-10        5.648e-10        4.737e-10        
                   4.252e-10         25.0000        1                 
 82                8.017e-10        6.077e-10        4.011e-10        
                   5.788e-10         25.0000        1                 
 83                8.725e-10        6.496e-10        4.440e-10        
                   6.101e-10         25.0000        1                 
 84                7.818e-10        5.379e-10        3.363e-10        
                   4.659e-10         25.0000        1                 
 85                6.646e-10        6.605e-10        4.191e-10        
                   5.393e-10         25.0000        1                 
 86                8.004e-10        6.285e-10        3.863e-10        
                   7.804e-10         25.0000        1                 
 87                7.168e-10        5.300e-10        4.214e-10        
                   7.705e-10         25.0000        1                 
 88                6.742e-10        5.223e-10        4.566e-10        
                   5.793e-10         25.0000        1                 
 89                1.182e-09        6.116e-10        6.073e-10        
                   4.909e-10         25.0000        1                 
 90                7.911e-10        6.517e-10        5.012e-10        
                   5.717e-10         25.0000        1                 
 91                6.757e-10        3.995e-10        4.118e-10        
                   4.286e-10         25.0000        1                 
 92                6.618e-10        6.195e-10        4.486e-10        
                   5.421e-10         25.0000        1                 
 93                6.940e-10        5.247e-10        4.330e-10        
                   5.292e-10         25.0000        1                 
 94                6.505e-10        5.626e-10        5.011e-10        
                   4.492e-10         25.0000        1                 
 95                7.598e-10        5.756e-10        4.036e-10        
                   5.082e-10         25.0000        1                 
 96                6.302e-10        5.159e-10        4.729e-10        
                   5.171e-10         25.0000        1                 
 97                8.978e-10        5.465e-10        4.601e-10        
                   4.551e-10         25.0000        1                 
 98                6.576e-10        6.393e-10        4.840e-10        
                   2.043e-09         25.0000        1                 
 99                6.806e-10        5.131e-10        4.562e-10        
                   5.349e-10         25.0000        1                 
 100               6.218e-10        6.796e-10        4.288e-10        
                   7.264e-10         25.0000        1                 
 101               6.331e-10        6.100e-10        4.068e-10        
                   5.307e-10         25.0000        1                 
 102               7.762e-10        5.892e-10        3.798e-10        
                   5.449e-10         25.0000        1                 
 103               7.003e-10        4.419e-10        3.773e-10        
                   4.941e-10         25.0000        1                 
 104               8.746e-10        5.549e-10        5.206e-10        
                   5.477e-10         25.0000        1                 
 105               6.056e-10        9.206e-10        5.187e-10        
                   6.405e-10         25.0000        1                 
 106               1.046e-09        6.120e-10        4.212e-10        
                   4.927e-10         25.0000        1                 
 107               6.332e-10        5.310e-10        5.677e-10        
                   6.130e-10         25.0000        1                 
 108               1.080e-09        5.267e-10        6.147e-10        
                   6.025e-10         25.0000        1                 
 109               8.258e-10        6.848e-10        4.510e-10        
                   6.939e-10         25.0000        1                 
 110               7.375e-10        5.114e-10        4.182e-10        
                   4.270e-10         25.0000        1                 
 111               7.196e-10        5.823e-10        3.350e-10        
                   1.030e-09         25.0000        1                 
 112               6.344e-10        6.141e-10        4.136e-10        
                   4.916e-10         25.0000        1                 
 113               6.437e-10        4.602e-10        4.487e-10        
                   4.837e-10         25.0000        1                 
 114               9.938e-10        5.136e-10        6.154e-10        
                   5.334e-10         25.0000        1                 
 115               6.860e-10        5.639e-10        3.528e-10        
                   4.443e-10         25.0000        1                 
 116               5.808e-10        5.706e-10        5.573e-10        
                   5.325e-10         25.0000        1                 
 117               8.510e-10        7.107e-10        4.710e-10        
                   5.721e-10         25.0000        1                 
 118               7.962e-10        6.129e-10        5.639e-10        
                   3.665e-10         25.0000        1                 
 119               6.814e-10        6.218e-10        4.589e-10        
                   5.128e-10         25.0000        1                 
 120               6.752e-10        6.344e-10        4.383e-10        
                   4.559e-10         25.0000        1                 
 121               7.393e-10        5.782e-10        5.140e-10        
                   6.064e-10         25.0000        1                 
 122               5.922e-10        4.674e-10        4.299e-10        
                   4.177e-10         25.0000        1                 
 123               6.614e-10        5.815e-10        4.335e-10        
                   4.348e-10         25.0000        1                 
 124               7.205e-10        4.943e-10        4.482e-10        
                   5.348e-10         25.0000        1                 
 125               6.385e-10        6.222e-10        4.285e-10        
                   5.109e-10         25.0000        1                 
 126               7.608e-10        5.246e-10        4.486e-10        
                   5.866e-10         25.0000        1                 
 127               7.191e-10        5.729e-10        4.793e-10        
                   6.452e-10         25.0000        1                 
 128               6.364e-10        5.561e-10        4.112e-10        
                   5.037e-10         25.0000        1                 
 129               6.546e-10        6.263e-10        4.444e-10        
                   7.894e-10         25.0000        1                 
 130               8.503e-10        5.124e-10        5.290e-10        
                   5.006e-10         25.0000        1                 
 131               6.526e-10        5.787e-10        4.366e-10        
                   4.737e-10         25.0000        1                 
 132               6.272e-10        6.468e-10        3.703e-10        
                   5.981e-10         25.0000        1                 
 133               6.366e-10        4.531e-10        4.319e-10        
                   3.089e-10         25.0000        1                 
 134               6.763e-10        6.210e-10        4.465e-10        
                   5.304e-10         25.0000        1                 
 135               7.625e-10        6.025e-10        4.705e-10        
                   6.854e-10         25.0000        1                 
 136               5.433e-10        5.706e-10        3.655e-10        
                   5.698e-10         25.0000        1                 
 137               6.131e-10        4.755e-10        3.935e-10        
                   5.253e-10         25.0000        1                 
 138               6.797e-10        4.821e-10        3.915e-10        
                   6.097e-10         25.0000        1                 
 139               7.476e-10        5.280e-10        3.774e-10        
                   4.079e-10         25.0000        1                 
 140               7.301e-10        4.447e-10        4.527e-10        
                   5.142e-10         25.0000        1                 
 141               7.187e-10        5.305e-10        4.959e-10        
                   4.361e-10         25.0000        1                 
 142               6.365e-10        5.655e-10        4.757e-10        
                   4.616e-10         25.0000        1                 
 143               7.280e-10        5.727e-10        4.516e-10        
                   4.440e-10         25.0000        1                 
 144               6.346e-10        5.149e-10        3.908e-10        
                   4.711e-10         25.0000        1                 
 145               9.556e-10        4.893e-10        4.536e-10        
                   5.408e-10         25.0000        1                 
 146               6.552e-10        5.429e-10        5.004e-10        
                   4.770e-10         25.0000        1                 
 147               1.154e-09        5.633e-10        6.490e-10        
                   4.067e-10         25.0000        1                 
 148               9.662e-10        5.059e-10        4.968e-10        
                   3.736e-10         25.0000        1                 
 149               7.812e-10        6.555e-10        4.043e-10        
                   6.855e-10         25.0000        1                 
 150               7.146e-10        6.520e-10        4.585e-10        
                   5.550e-10         25.0000        1                 
 151               8.991e-10        5.746e-10        3.885e-10        
                   4.315e-10         25.0000        1                 
 152               7.664e-10        5.601e-10        4.474e-10        
                   6.320e-10         25.0000        1                 
 153               8.074e-10        7.282e-10        5.371e-10        
                   4.663e-10         25.0000        1                 
 154               8.705e-10        5.869e-10        5.179e-10        
                   4.775e-10         25.0000        1                 
 155               8.417e-10        4.906e-10        3.795e-10        
                   4.682e-10         25.0000        1                 
 156               9.483e-10        5.450e-10        4.706e-10        
                   4.500e-10         25.0000        1                 
 157               9.392e-10        5.618e-10        4.075e-10        
                   5.501e-10         25.0000        1                 
 158               7.346e-10        7.295e-10        4.044e-10        
                   4.971e-10         25.0000        1                 
 159               7.321e-10        5.217e-10        4.398e-10        
                   4.826e-10         25.0000        1                 
 160               7.074e-10        5.862e-10        4.250e-10        
                   5.363e-10         25.0000        1                 
 161               8.873e-10        5.228e-10        3.552e-10        
                   5.540e-10         25.0000        1                 
 162               6.128e-10        5.670e-10        4.403e-10        
                   4.358e-10         25.0000        1                 
 163               6.993e-10        5.721e-10        4.126e-10        
                   4.521e-10         25.0000        1                 
 164               7.436e-10        5.494e-10        4.813e-10        
                   4.963e-10         25.0000        1                 
 165               9.162e-10        6.436e-10        4.238e-10        
                   4.968e-10         25.0000        1                 
 166               5.733e-10        6.078e-10        3.689e-10        
                   5.204e-10         25.0000        1                 
 167               7.663e-10        5.431e-10        5.121e-10        
                   3.910e-10         25.0000        1                 
 168               6.967e-10        5.885e-10        4.851e-10        
                   4.911e-10         25.0000        1                 
 169               6.458e-10        5.647e-10        4.295e-10        
                   6.173e-10         25.0000        1                 
 170               8.077e-10        7.310e-10        4.627e-10        
                   5.714e-10         25.0000        1                 
 171               7.471e-10        5.336e-10        5.306e-10        
                   5.979e-10         25.0000        1                 
 172               8.716e-10        5.502e-10        4.929e-10        
                   5.041e-10         25.0000        1                 
 173               6.880e-10        5.949e-10        4.082e-10        
                   4.218e-10         25.0000        1                 
 174               6.363e-10        6.435e-10        4.874e-10        
                   5.892e-10         25.0000        1                 
 175               8.063e-10        5.122e-10        4.489e-10        
                   4.829e-10         25.0000        1                 
 176               8.208e-10        5.064e-10        4.187e-10        
                   4.391e-10         25.0000        1                 
 177               6.159e-10        5.978e-10        4.224e-10        
                   7.273e-10         25.0000        1                 
 178               7.333e-10        4.864e-10        5.014e-10        
                   3.761e-10         25.0000        1                 
 179               6.290e-10        5.680e-10        4.425e-10        
                   5.148e-10         25.0000        1                 
 180               6.297e-10        5.203e-10        3.833e-10        
                   4.508e-10         25.0000        1                 
 181               6.309e-10        6.290e-10        4.591e-10        
                   4.894e-10         25.0000        1                 
 182               7.210e-10        5.662e-10        4.318e-10        
                   5.333e-10         25.0000        1                 
 183               6.719e-10        6.227e-10        4.378e-10        
                   5.697e-10         25.0000        1                 
 184               7.093e-10        4.963e-10        4.020e-10        
                   4.924e-10         25.0000        1                 
 185               6.526e-10        5.084e-10        4.191e-10        
                   7.420e-10         25.0000        1                 
 186               7.632e-10        4.940e-10        5.070e-10        
                   5.491e-10         25.0000        1                 
 187               7.666e-10        7.792e-10        3.544e-10        
                   5.978e-10         25.0000        1                 
 188               6.051e-10        5.855e-10        3.997e-10        
                   4.710e-10         25.0000        1                 
 189               8.046e-10        5.956e-10        4.062e-10        
                   6.712e-10         25.0000        1                 
 190               8.359e-10        5.111e-10        4.400e-10        
                   4.618e-10         25.0000        1                 
 191               5.943e-10        6.663e-10        4.825e-10        
                   6.496e-10         25.0000        1                 
 192               8.802e-10        5.558e-10        3.956e-10        
                   4.804e-10         25.0000        1                 
 193               7.906e-10        4.932e-10        4.982e-10        
                   4.341e-10         25.0000        1                 
 194               7.200e-10        4.263e-10        4.466e-10        
                   4.919e-10         25.0000        1                 
 195               6.612e-10        5.715e-10        4.145e-10        
                   6.487e-10         25.0000        1                 
 196               6.293e-10        5.694e-10        4.221e-10        
                   6.385e-10         25.0000        1                 
 197               7.219e-10        6.946e-10        4.334e-10        
                   5.715e-10         25.0000        1                 
 198               6.489e-10        6.189e-10        4.463e-10        
                   4.816e-10         25.0000        1                 
 199               6.245e-10        6.341e-10        4.242e-10        
                   5.867e-10         25.0000        1                 
 200               8.303e-10        5.467e-10        4.272e-10        
                   4.837e-10         25.0000        1                 
 201               9.143e-10        5.658e-10        4.835e-10        
                   5.803e-10         25.0000        1                 
 202               9.425e-10        5.678e-10        4.316e-10        
                   6.280e-10         25.0000        1                 
 203               8.698e-10        5.281e-10        3.659e-10        
                   4.553e-10         25.0000        1                 
 204               7.552e-10        5.666e-10        4.501e-10        
                   3.857e-10         25.0000        1                 
 205               9.718e-10        5.532e-10        4.235e-10        
                   4.555e-10         25.0000        1                 
 206               7.864e-10        5.087e-10        4.394e-10        
                   4.463e-10         25.0000        1                 
 207               6.737e-10        7.681e-10        4.343e-10        
                   4.289e-10         25.0000        1                 
 208               7.860e-10        5.505e-10        4.915e-10        
                   5.451e-10         25.0000        1                 
 209               7.119e-10        6.309e-10        5.227e-10        
                   3.960e-10         25.0000        1                 
 210               6.623e-10        4.528e-10        4.336e-10        
                   6.556e-10         25.0000        1                 
 211               6.012e-10        5.273e-10        4.441e-10        
                   4.442e-10         25.0000        1                 
 212               8.821e-10        5.733e-10        3.628e-10        
                   4.602e-10         25.0000        1                 
 213               7.096e-10        5.396e-10        4.382e-10        
                   4.958e-10         25.0000        1                 
 214               1.402e-09        6.283e-10        4.367e-10        
                   5.435e-10         25.0000        1                 
 215               7.501e-10        4.389e-10        4.204e-10        
                   4.158e-10         25.0000        1                 
 216               5.862e-10        5.868e-10        4.411e-10        
                   4.693e-10         25.0000        1                 
 217               7.732e-10        6.954e-10        5.146e-10        
                   7.185e-10         25.0000        1                 
 218               8.076e-10        4.768e-10        4.347e-10        
                   4.161e-10         25.0000        1                 
 219               9.334e-10        4.877e-10        5.333e-10        
                   4.918e-10         25.0000        1                 
 220               7.142e-10        6.175e-10        4.522e-10        
                   7.056e-10         25.0000        1                 
 221               6.351e-10        5.432e-10        4.514e-10        
                   5.906e-10         25.0000        1                 
 222               6.688e-10        6.028e-10        5.006e-10        
                   5.806e-10         25.0000        1                 
 223               5.830e-10        6.641e-10        4.246e-10        
                   6.848e-10         25.0000        1                 
 224               1.105e-09        5.799e-10        5.541e-10        
                   4.545e-10         25.0000        1                 
 225               6.909e-10        6.932e-10        4.267e-10        
                   5.924e-10         25.0000        1                 
 226               6.414e-10        5.760e-10        3.229e-10        
                   4.225e-10         25.0000        1                 
 227               7.203e-10        6.192e-10        3.941e-10        
                   6.297e-10         25.0000        1                 
 228               6.696e-10        5.556e-10        3.897e-10        
                   6.228e-10         25.0000        1                 
 229               6.567e-10        5.105e-10        4.923e-10        
                   4.816e-10         25.0000        1                 
 230               6.816e-10        4.958e-10        4.284e-10        
                   4.404e-10         25.0000        1                 
 231               6.650e-10        6.488e-10        3.990e-10        
                   4.168e-10         25.0000        1                 
 232               9.169e-10        6.042e-10        4.601e-10        
                   4.317e-10         25.0000        1                 
 233               7.788e-10        4.725e-10        3.595e-10        
                   3.951e-10         25.0000        1                 
 234               7.366e-10        6.070e-10        4.726e-10        
                   5.457e-10         25.0000        1                 
 235               9.762e-10        6.232e-10        4.820e-10        
                   4.209e-10         25.0000        1                 
 236               7.573e-10        5.470e-10        3.726e-10        
                   3.849e-10         25.0000        1                 
 237               9.174e-10        5.492e-10        4.970e-10        
                   4.866e-10         25.0000        1                 
 238               1.019e-09        4.892e-10        4.663e-10        
                   5.619e-10         25.0000        1                 
 239               7.764e-10        7.650e-10        4.246e-10        
                   5.436e-10         25.0000        1                 
 240               2.224e-09        5.250e-10        4.673e-10        
                   4.751e-10         25.0000        1                 
 241               7.715e-10        4.362e-10        3.883e-10        
                   4.205e-10         25.0000        1                 
 242               8.217e-10        6.613e-10        4.516e-10        
                   5.133e-10         25.0000        1                 
 243               7.967e-10        6.290e-10        3.829e-10        
                   4.794e-10         25.0000        1                 
 244               7.440e-10        5.416e-10        4.851e-10        
                   4.666e-10         25.0000        1                 
 245               6.117e-10        5.713e-10        4.529e-10        
                   3.665e-10         25.0000        1                 
 246               6.299e-10        6.435e-10        4.550e-10        
                   6.627e-10         25.0000        1                 
 247               8.867e-10        6.696e-10        4.572e-10        
                   5.959e-10         25.0000        1                 
 248               7.431e-10        5.628e-10        3.967e-10        
                   5.152e-10         25.0000        1                 
 249               7.076e-10        4.942e-10        4.154e-10        
                   4.613e-10         25.0000        1                 
 250               6.247e-10        5.538e-10        3.414e-10        
                   4.921e-10         25.0000        1                 
 251               6.353e-10        4.921e-10        5.372e-10        
                   4.710e-10         25.0000        1                 
 252               7.950e-10        6.414e-10        4.106e-10        
                   4.184e-10         25.0000        1                 
 253               7.575e-10        6.092e-10        4.426e-10        
                   6.824e-10         25.0000        1                 
 254               6.570e-10        5.445e-10        4.063e-10        
                   4.944e-10         25.0000        1                 
 255               6.242e-10        5.809e-10        4.222e-10        
                   5.128e-10         25.0000        1                 
 256               8.471e-10        7.121e-10        4.662e-10        
                   6.262e-10         25.0000        1                 
 257               7.867e-10        6.119e-10        3.933e-10        
                   9.687e-10         25.0000        1                 
 258               6.619e-10        5.600e-10        4.982e-10        
                   6.850e-10         25.0000        1                 
 259               8.712e-10        6.768e-10        4.700e-10        
                   4.812e-10         25.0000        1                 
 260               8.777e-10        5.377e-10        4.577e-10        
                   4.831e-10         25.0000        1                 
 261               7.370e-10        5.637e-10        5.179e-10        
                   4.914e-10         25.0000        1                 
 262               7.866e-10        7.061e-10        4.501e-10        
                   4.709e-10         25.0000        1                 
 263               9.353e-10        5.741e-10        5.147e-10        
                   3.935e-10         25.0000        1                 
 264               8.484e-10        5.447e-10        4.731e-10        
                   4.667e-10         25.0000        1                 
 265               8.527e-10        6.114e-10        4.032e-10        
                   6.026e-10         25.0000        1                 
 266               6.817e-10        4.929e-10        4.413e-10        
                   4.776e-10         25.0000        1                 
 267               7.769e-10        7.017e-10        4.244e-10        
                   6.519e-10         25.0000        1                 
 268               1.126e-09        5.448e-10        5.694e-10        
                   5.024e-10         25.0000        1                 
 269               7.680e-10        5.049e-10        4.232e-10        
                   2.997e-10         25.0000        1                 
 270               7.245e-10        6.657e-10        3.921e-10        
                   3.900e-10         25.0000        1                 
 271               7.027e-10        4.545e-10        4.670e-10        
                   3.992e-10         25.0000        1                 
 272               6.580e-10        6.186e-10        4.400e-10        
                   4.492e-10         25.0000        1                 
 273               7.365e-10        5.419e-10        3.807e-10        
                   5.156e-10         25.0000        1                 
 274               6.370e-10        6.401e-10        5.110e-10        
                   7.623e-10         25.0000        1                 
 275               6.980e-10        4.941e-10        4.509e-10        
                   4.613e-10         25.0000        1                 
 276               8.038e-10        5.406e-10        4.315e-10        
                   5.061e-10         25.0000        1                 
 277               8.644e-10        5.406e-10        3.819e-10        
                   4.125e-10         25.0000        1                 
 278               6.801e-10        4.763e-10        3.955e-10        
                   4.180e-10         25.0000        1                 
 279               7.368e-10        5.691e-10        4.355e-10        
                   4.367e-10         25.0000        1                 
 280               6.521e-10        5.726e-10        4.377e-10        
                   4.620e-10         25.0000        1                 
 281               8.936e-10        5.688e-10        6.791e-10        
                   3.879e-10         25.0000        1                 
 282               8.276e-10        5.675e-10        4.369e-10        
                   4.642e-10         25.0000        1                 
 283               7.112e-10        5.174e-10        3.733e-10        
                   4.349e-10         25.0000        1                 
 284               8.266e-10        6.097e-10        4.425e-10        
                   5.437e-10         25.0000        1                 
 285               9.354e-10        5.712e-10        4.263e-10        
                   5.562e-10         25.0000        1                 
 286               7.285e-10        5.029e-10        4.878e-10        
                   4.025e-10         25.0000        1                 
 287               1.002e-09        5.752e-10        4.928e-10        
                   5.327e-10         25.0000        1                 
 288               7.509e-10        5.636e-10        4.857e-10        
                   4.661e-10         25.0000        1                 
 289               1.091e-09        5.785e-10        4.617e-10        
                   5.609e-10         25.0000        1                 
 290               7.276e-10        4.762e-10        4.193e-10        
                   3.903e-10         25.0000        1                 
 291               7.643e-10        5.911e-10        4.012e-10        
                   4.896e-10         25.0000        1                 
 292               7.065e-10        5.246e-10        4.638e-10        
                   6.610e-10         25.0000        1                 
 293               6.437e-10        4.905e-10        3.523e-10        
                   3.960e-10         25.0000        1                 
 294               8.170e-10        6.140e-10        4.825e-10        
                   6.712e-10         25.0000        1                 
 295               8.277e-10        4.981e-10        4.017e-10        
                   4.967e-10         25.0000        1                 
 296               6.990e-10        5.130e-10        4.767e-10        
                   4.727e-10         25.0000        1                 
 297               7.961e-10        5.581e-10        4.675e-10        
                   5.005e-10         25.0000        1                 
 298               6.640e-10        5.239e-10        4.427e-10        
                   5.006e-10         25.0000        1                 
 299               8.358e-10        6.068e-10        4.142e-10        
                   4.640e-10         25.0000        1                 
 300               6.665e-10        6.888e-10        4.797e-10        
                   4.616e-10         25.0000        1                 
