$DATA1 SOURCE='HSPICE' VERSION='F-2011.09 64-BIT'
.TITLE '* include model and subckts'
 index            write1           read1            write0            
                  read0            temper           alter#            
 1                   0.3500           0.3500         1.635e-05        
                   7.321e-05         25.0000        1                 
 2                   0.3499           0.3500         1.768e-05        
                   4.330e-05         25.0000        1                 
 3                   0.3499           0.3500         1.287e-05        
                   2.744e-05         25.0000        1                 
 4                   0.3499           0.3500         1.006e-05        
                   3.314e-05         25.0000        1                 
 5                   0.3500           0.3500         1.562e-05        
                   1.239e-04         25.0000        1                 
 6                   0.3500           0.3500         1.802e-05        
                   9.678e-05         25.0000        1                 
 7                   0.3500           0.3500         1.694e-05        
                   5.869e-05         25.0000        1                 
 8                   0.3499           0.3500         1.461e-05        
                   3.730e-05         25.0000        1                 
 9                   0.3500           0.3500         3.820e-05        
                   7.984e-05         25.0000        1                 
 10                  0.3500           0.3499         1.267e-05        
                   6.094e-05         25.0000        1                 
 11                  0.3500           0.3499         2.116e-05        
                   7.943e-05         25.0000        1                 
 12                  0.3499           0.3500         1.137e-05        
                   5.079e-05         25.0000        1                 
 13                  0.3500           0.3500         1.813e-05        
                   5.679e-05         25.0000        1                 
 14                  0.3500           0.3500         1.653e-05        
                   1.022e-04         25.0000        1                 
 15                  0.3499           0.3500         1.099e-05        
                   5.990e-05         25.0000        1                 
 16                  0.3500           0.3500         2.236e-05        
                   8.848e-05         25.0000        1                 
 17                  0.3500           0.3500         3.089e-05        
                   8.719e-05         25.0000        1                 
 18                  0.3500           0.3499         1.495e-05        
                   6.786e-05         25.0000        1                 
 19                  0.3500           0.3500         1.915e-05        
                   6.023e-05         25.0000        1                 
 20                  0.3499           0.3500         1.201e-05        
                   5.064e-05         25.0000        1                 
 21                  0.3499           0.3500         9.187e-06        
                   3.497e-05         25.0000        1                 
 22                  0.3500           0.3500         2.132e-05        
                   1.047e-04         25.0000        1                 
 23                  0.3500           0.3499         1.778e-05        
                   4.968e-05         25.0000        1                 
 24                  0.3500           0.3500         2.020e-05        
                   8.757e-05         25.0000        1                 
 25                  0.3500           0.3499         2.140e-05        
                   1.316e-04         25.0000        1                 
 26                  0.3500           0.3499         1.890e-05        
                   4.659e-05         25.0000        1                 
 27                  0.3500           0.3499         1.237e-05        
                   8.356e-05         25.0000        1                 
 28                  0.3500           0.3500         2.010e-05        
                   5.416e-05         25.0000        1                 
 29                  0.3500           0.3500         3.206e-05        
                   1.513e-04         25.0000        1                 
 30                  0.3499           0.3500         1.652e-05        
                   4.042e-05         25.0000        1                 
 31                  0.3500           0.3500         3.511e-05        
                   8.279e-05         25.0000        1                 
 32                  0.3500           0.3500         1.021e-05        
                   1.182e-04         25.0000        1                 
 33                  0.3499           0.3499         1.173e-05        
                   5.604e-05         25.0000        1                 
 34                  0.3500           0.3500         1.312e-05        
                   1.583e-04         25.0000        1                 
 35                  0.3500           0.3499         1.631e-05        
                   4.913e-05         25.0000        1                 
 36                  0.3500           0.3500         1.858e-05        
                   1.913e-04         25.0000        1                 
 37                  0.3500           0.3500         2.191e-05        
                   5.532e-05         25.0000        1                 
 38                  0.3499           0.3500         1.178e-05        
                   5.120e-05         25.0000        1                 
 39                  0.3499           0.3500         1.252e-05        
                   3.420e-05         25.0000        1                 
 40                  0.3499           0.3500         1.358e-05        
                   5.294e-05         25.0000        1                 
 41                  0.3500           0.3500         1.522e-05        
                   7.279e-05         25.0000        1                 
 42                  0.3500           0.3500         2.155e-05        
                   8.055e-05         25.0000        1                 
 43                  0.3500           0.3500         1.889e-05        
                   1.124e-04         25.0000        1                 
 44                  0.3500           0.3500         1.782e-05        
                   2.135e-04         25.0000        1                 
 45                  0.3500           0.3500         1.126e-05        
                   9.052e-05         25.0000        1                 
 46                  0.3500           0.3499         1.031e-05        
                   1.203e-04         25.0000        1                 
 47                  0.3500           0.3500         1.446e-05        
                   8.998e-05         25.0000        1                 
 48                  0.3500           0.3500         2.165e-05        
                   8.409e-05         25.0000        1                 
 49                  0.3500           0.3500         1.881e-05        
                   7.962e-05         25.0000        1                 
 50                  0.3500           0.3500         1.917e-05        
                   1.125e-04         25.0000        1                 
 51                  0.3499           0.3499         1.413e-05        
                   5.067e-05         25.0000        1                 
 52                  0.3499           0.3500         1.653e-05        
                   4.060e-05         25.0000        1                 
 53                  0.3500           0.3500         1.311e-05        
                   1.610e-04         25.0000        1                 
 54                  0.3499           0.3499         1.712e-05        
                   4.866e-05         25.0000        1                 
 55                  0.3499           0.3499         1.472e-05        
                   3.469e-05         25.0000        1                 
 56                  0.3500           0.3500         2.037e-05        
                   9.455e-05         25.0000        1                 
 57                  0.3499           0.3499         9.812e-06        
                   5.026e-05         25.0000        1                 
 58                  0.3500           0.3499         2.513e-05        
                   5.942e-05         25.0000        1                 
 59                  0.3499           0.3500         2.252e-05        
                   3.790e-05         25.0000        1                 
 60                  0.3500           0.3499         2.910e-05        
                   1.144e-04         25.0000        1                 
 61                  0.3499           0.3500         1.361e-05        
                   3.462e-05         25.0000        1                 
 62                  0.3499           0.3500         1.353e-05        
                   3.159e-05         25.0000        1                 
 63                  0.3499           0.3500         1.381e-05        
                   4.866e-05         25.0000        1                 
 64                  0.3500           0.3499         1.988e-05        
                   8.687e-05         25.0000        1                 
 65                  0.3499           0.3500         1.449e-05        
                   4.453e-05         25.0000        1                 
 66                  0.3500           0.3499         1.866e-05        
                   7.231e-05         25.0000        1                 
 67                  0.3500           0.3500         9.923e-06        
                   1.938e-04         25.0000        1                 
 68                  0.3500           0.3500         1.426e-05        
                   6.152e-05         25.0000        1                 
 69                  0.3500           0.3500         2.979e-05        
                   7.794e-05         25.0000        1                 
 70                  0.3500           0.3499         1.848e-05        
                   5.537e-05         25.0000        1                 
 71                  0.3500           0.3500         2.517e-05        
                   1.404e-04         25.0000        1                 
 72                  0.3499           0.3500         9.797e-06        
                   3.638e-05         25.0000        1                 
 73                  0.3500           0.3500         3.066e-05        
                   1.600e-04         25.0000        1                 
 74                  0.3500           0.3500         1.144e-05        
                   6.324e-05         25.0000        1                 
 75                  0.3500           0.3500         2.276e-05        
                   8.669e-05         25.0000        1                 
 76                  0.3500           0.3500         2.948e-05        
                   1.023e-04         25.0000        1                 
 77                  0.3499           0.3500         1.492e-05        
                   3.532e-05         25.0000        1                 
 78                  0.3500           0.3500         2.508e-05        
                   1.132e-04         25.0000        1                 
 79                  0.3499           0.3499         1.077e-05        
                   4.916e-05         25.0000        1                 
 80                  0.3500           0.3500         1.952e-05        
                   6.235e-05         25.0000        1                 
 81                  0.3499           0.3499         1.544e-05        
                   4.129e-05         25.0000        1                 
 82                  0.3500           0.3500         1.054e-05        
                   9.822e-05         25.0000        1                 
 83                  0.3500           0.3500         1.745e-05        
                   1.120e-04         25.0000        1                 
 84                  0.3500           0.3500         1.031e-05        
                   1.955e-04         25.0000        1                 
 85                  0.3499           0.3499         1.079e-05        
                   5.733e-05         25.0000        1                 
 86                  0.3500           0.3500         1.015e-05        
                   1.242e-04         25.0000        1                 
 87                  0.3500           0.3500         1.841e-05        
                   1.311e-04         25.0000        1                 
 88                  0.3499           0.3500         1.385e-05        
                   3.560e-05         25.0000        1                 
 89                  0.3500           0.3500         3.101e-05        
                   7.587e-05         25.0000        1                 
 90                  0.3499           0.3500         1.351e-05        
                   3.690e-05         25.0000        1                 
 91                  0.3499           0.3499         8.548e-06        
                   5.086e-05         25.0000        1                 
 92                  0.3500           0.3499         2.579e-05        
                   1.088e-04         25.0000        1                 
 93                  0.3500           0.3500         1.359e-05        
                   7.888e-05         25.0000        1                 
 94                  0.3500           0.3500         2.139e-05        
                   7.976e-05         25.0000        1                 
 95                  0.3500           0.3500         1.153e-05        
                   1.062e-04         25.0000        1                 
 96                  0.3500           0.3500         2.441e-05        
                   7.576e-05         25.0000        1                 
 97                  0.3499           0.3500         1.559e-05        
                   4.793e-05         25.0000        1                 
 98                  0.3500           0.3500         3.266e-05        
                   1.504e-04         25.0000        1                 
 99                  0.3499           0.3500         1.696e-05        
                   4.652e-05         25.0000        1                 
 100                 0.3500           0.3500         1.690e-05        
                   1.225e-04         25.0000        1                 
 101                 0.3500           0.3499         1.655e-05        
                   8.269e-05         25.0000        1                 
 102                 0.3500           0.3500         1.226e-05        
                   9.200e-05         25.0000        1                 
 103                 0.3500           0.3500         9.939e-06        
                   7.681e-05         25.0000        1                 
 104                 0.3499           0.3500         9.647e-06        
                   2.255e-05         25.0000        1                 
 105                 0.3500           0.3499         2.936e-05        
                   6.042e-05         25.0000        1                 
 106                 0.3499           0.3498         1.044e-05        
                   5.322e-05         25.0000        1                 
 107                 0.3500           0.3500         4.395e-05        
                   1.164e-04         25.0000        1                 
 108                 0.3500           0.3500         2.125e-05        
                   4.767e-05         25.0000        1                 
 109                 0.3499           0.3500         1.861e-05        
                   4.989e-05         25.0000        1                 
 110                 0.3500           0.3500         1.808e-05        
                   1.013e-04         25.0000        1                 
 111                 0.3500           0.3500         8.352e-06        
                   3.349e-04         25.0000        1                 
 112                 0.3500           0.3499         1.565e-05        
                   9.330e-05         25.0000        1                 
 113                 0.3499           0.3500         1.338e-05        
                   4.005e-05         25.0000        1                 
 114                 0.3499           0.3500         1.552e-05        
                   3.118e-05         25.0000        1                 
 115                 0.3499           0.3499         8.135e-06        
                   7.880e-05         25.0000        1                 
 116                 0.3500           0.3500         3.442e-05        
                   8.558e-05         25.0000        1                 
 117                 0.3500           0.3499         2.507e-05        
                   1.370e-04         25.0000        1                 
 118                 0.3500           0.3499         5.928e-05        
                   3.433e-04         25.0000        1                 
 119                 0.3499           0.3500         1.249e-05        
                   3.620e-05         25.0000        1                 
 120                 0.3499           0.3499         1.467e-05        
                   5.171e-05         25.0000        1                 
 121                 0.3500           0.3500         2.121e-05        
                   6.773e-05         25.0000        1                 
 122                 0.3500           0.3500         1.974e-05        
                   1.149e-04         25.0000        1                 
 123                 0.3500           0.3500         1.592e-05        
                   7.412e-05         25.0000        1                 
 124                 0.3499           0.3500         1.299e-05        
                   4.600e-05         25.0000        1                 
 125                 0.3499           0.3499         1.512e-05        
                   3.998e-05         25.0000        1                 
 126                 0.3500           0.3500         1.671e-05        
                   5.602e-05         25.0000        1                 
 127                 0.3500           0.3500         2.619e-05        
                   8.802e-05         25.0000        1                 
 128                 0.3500           0.3500         1.193e-05        
                   7.963e-05         25.0000        1                 
 129                 0.3500           0.3500         1.885e-05        
                   1.018e-04         25.0000        1                 
 130                 0.3499           0.3499         1.220e-05        
                   3.026e-05         25.0000        1                 
 131                 0.3498           0.3499         6.723e-06        
                   2.074e-05         25.0000        1                 
 132                 0.3500           0.3500         1.498e-05        
                   1.782e-04         25.0000        1                 
 133                 0.3500           0.3500         1.438e-05        
                   5.937e-05         25.0000        1                 
 134                 0.3499           0.3499         1.345e-05        
                   4.416e-05         25.0000        1                 
 135                 0.3500           0.3500         3.149e-05        
                   1.362e-04         25.0000        1                 
 136                 0.3499           0.3499         1.058e-05        
                   7.140e-05         25.0000        1                 
 137                 0.3499           0.3500         1.090e-05        
                   4.421e-05         25.0000        1                 
 138                 0.3500           0.3500         1.478e-05        
                   3.092e-04         25.0000        1                 
 139                 0.3498           0.3499         5.585e-06        
                   3.492e-05         25.0000        1                 
 140                 0.3500           0.3500         2.103e-05        
                   7.915e-05         25.0000        1                 
 141                 0.3500           0.3500         3.630e-05        
                   1.604e-04         25.0000        1                 
 142                 0.3500           0.3500         1.671e-05        
                   4.996e-05         25.0000        1                 
 143                 0.3500           0.3500         1.654e-05        
                   1.248e-04         25.0000        1                 
 144                 0.3500           0.3500         1.547e-05        
                   1.901e-04         25.0000        1                 
 145                 0.3500           0.3500         2.266e-05        
                   2.120e-04         25.0000        1                 
 146                 0.3500           0.3500         2.952e-05        
                   9.359e-05         25.0000        1                 
 147                 0.3500           0.3500         2.300e-05        
                   5.896e-05         25.0000        1                 
 148                 0.3500           0.3500         3.204e-05        
                   2.360e-04         25.0000        1                 
 149                 0.3500           0.3500         1.723e-05        
                   2.073e-04         25.0000        1                 
 150                 0.3500           0.3500         1.651e-05        
                   8.631e-05         25.0000        1                 
 151                 0.3500           0.3500         1.320e-05        
                   2.523e-04         25.0000        1                 
 152                 0.3500           0.3500         1.634e-05        
                   8.299e-05         25.0000        1                 
 153                 0.3500           0.3499         1.625e-05        
                   4.487e-05         25.0000        1                 
 154                 0.3500           0.3500         2.583e-05        
                   8.865e-05         25.0000        1                 
 155                 0.3500           0.3500         7.528e-06        
                   1.240e-04         25.0000        1                 
 156                 0.3500           0.3500         2.127e-05        
                   1.658e-04         25.0000        1                 
 157                 0.3499           0.3500         1.083e-05        
                   5.762e-05         25.0000        1                 
 158                 0.3500           0.3499         1.234e-05        
                   7.527e-05         25.0000        1                 
 159                 0.3499           0.3500         1.054e-05        
                   3.384e-05         25.0000        1                 
 160                 0.3500           0.3500         1.111e-05        
                   6.567e-05         25.0000        1                 
 161                 0.3499           0.3500         7.271e-06        
                   7.711e-05         25.0000        1                 
 162                 0.3500           0.3500         2.061e-05        
                   1.152e-04         25.0000        1                 
 163                 0.3499           0.3499         9.049e-06        
                   5.953e-05         25.0000        1                 
 164                 0.3500           0.3499         2.175e-05        
                   6.981e-05         25.0000        1                 
 165                 0.3499           0.3500         7.801e-06        
                   3.150e-05         25.0000        1                 
 166                 0.3500           0.3500         1.381e-05        
                   8.819e-05         25.0000        1                 
 167                 0.3499           0.3499         1.799e-05        
                   3.984e-05         25.0000        1                 
 168                 0.3500           0.3499         2.161e-05        
                   7.635e-05         25.0000        1                 
 169                 0.3499           0.3499         1.565e-05        
                   4.843e-05         25.0000        1                 
 170                 0.3500           0.3499         2.248e-05        
                   1.063e-04         25.0000        1                 
 171                 0.3499           0.3500         1.952e-05        
                   4.031e-05         25.0000        1                 
 172                 0.3500           0.3500         1.838e-05        
                   6.261e-05         25.0000        1                 
 173                 0.3500           0.3500         1.657e-05        
                   1.487e-04         25.0000        1                 
 174                 0.3499           0.3498         1.548e-05        
                   3.730e-05         25.0000        1                 
 175                 0.3500           0.3500         1.838e-05        
                   1.050e-04         25.0000        1                 
 176                 0.3499           0.3500         1.163e-05        
                   5.666e-05         25.0000        1                 
 177                 0.3500           0.3500         1.399e-05        
                   7.701e-05         25.0000        1                 
 178                 0.3500           0.3499         2.064e-05        
                   7.326e-05         25.0000        1                 
 179                 0.3500           0.3499         1.425e-05        
                   6.225e-05         25.0000        1                 
 180                 0.3500           0.3499         1.775e-05        
                   2.956e-04         25.0000        1                 
 181                 0.3500           0.3500         2.051e-05        
                   8.926e-05         25.0000        1                 
 182                 0.3500           0.3500         1.327e-05        
                   6.365e-05         25.0000        1                 
 183                 0.3500           0.3500         1.554e-05        
                   6.157e-05         25.0000        1                 
 184                 0.3500           0.3500         1.416e-05        
                   9.085e-05         25.0000        1                 
 185                 0.3499           0.3500         1.209e-05        
                   5.372e-05         25.0000        1                 
 186                 0.3500           0.3500         2.270e-05        
                   4.910e-05         25.0000        1                 
 187                 0.3499           0.3499         5.857e-06        
                   5.300e-05         25.0000        1                 
 188                 0.3500           0.3499         1.313e-05        
                   1.196e-04         25.0000        1                 
 189                 0.3500           0.3500         9.506e-06        
                   8.229e-05         25.0000        1                 
 190                 0.3500           0.3500         1.443e-05        
                   6.207e-05         25.0000        1                 
 191                 0.3500           0.3500         2.831e-05        
                   1.125e-04         25.0000        1                 
 192                 0.3500           0.3500         1.007e-05        
                   8.703e-05         25.0000        1                 
 193                 0.3499           0.3500         1.454e-05        
                   3.364e-05         25.0000        1                 
 194                 0.3500           0.3500         1.555e-05        
                   8.214e-05         25.0000        1                 
 195                 0.3500           0.3500         1.408e-05        
                   9.688e-05         25.0000        1                 
 196                 0.3500           0.3500         1.710e-05        
                   1.492e-04         25.0000        1                 
 197                 0.3500           0.3499         1.589e-05        
                   6.081e-05         25.0000        1                 
 198                 0.3500           0.3499         2.196e-05        
                   1.276e-04         25.0000        1                 
 199                 0.3500           0.3499         2.456e-05        
                   1.640e-04         25.0000        1                 
 200                 0.3499           0.3500         8.268e-06        
                   3.413e-05         25.0000        1                 
 201                 0.3500           0.3500         1.672e-05        
                   7.102e-05         25.0000        1                 
 202                 0.3499           0.3500         9.517e-06        
                   3.400e-05         25.0000        1                 
 203                 0.3499           0.3500         7.746e-06        
                   7.404e-05         25.0000        1                 
 204                 0.3499           0.3499         1.157e-05        
                   3.927e-05         25.0000        1                 
 205                 0.3499           0.3500         9.766e-06        
                   3.605e-05         25.0000        1                 
 206                 0.3500           0.3500         1.818e-05        
                   7.207e-05         25.0000        1                 
 207                 0.3499           0.3499         1.661e-05        
                   5.461e-05         25.0000        1                 
 208                 0.3500           0.3500         2.219e-05        
                   7.116e-05         25.0000        1                 
 209                 0.3500           0.3499         2.483e-05        
                   7.937e-05         25.0000        1                 
 210                 0.3500           0.3500         2.013e-05        
                   1.108e-04         25.0000        1                 
 211                 0.3500           0.3499         1.688e-05        
                   8.479e-05         25.0000        1                 
 212                 0.3500           0.3499         1.317e-05        
                   1.061e-04         25.0000        1                 
 213                 0.3500           0.3500         1.967e-05        
                   1.071e-04         25.0000        1                 
 214                 0.3500           0.3500         1.449e-05        
                   6.896e-05         25.0000        1                 
 215                 0.3500           0.3500         1.720e-05        
                   1.048e-04         25.0000        1                 
 216                 0.3500           0.3499         1.395e-05        
                   6.556e-05         25.0000        1                 
 217                 0.3499           0.3500         1.839e-05        
                   3.578e-05         25.0000        1                 
 218                 0.3500           0.3500         1.886e-05        
                   1.442e-04         25.0000        1                 
 219                 0.3500           0.3500         2.118e-05        
                   5.437e-05         25.0000        1                 
 220                 0.3500           0.3500         1.768e-05        
                   1.042e-04         25.0000        1                 
 221                 0.3500           0.3500         1.988e-05        
                   7.212e-05         25.0000        1                 
 222                 0.3500           0.3500         2.882e-05        
                   1.016e-04         25.0000        1                 
 223                 0.3499           0.3500         1.243e-05        
                   4.867e-05         25.0000        1                 
 224                 0.3500           0.3500         2.698e-05        
                   8.860e-05         25.0000        1                 
 225                 0.3500           0.3500         1.457e-05        
                   7.774e-05         25.0000        1                 
 226                 0.3499           0.3499         8.562e-06        
                   1.171e-04         25.0000        1                 
 227                 0.3500           0.3500         1.066e-05        
                   8.520e-05         25.0000        1                 
 228                 0.3499           0.3500         9.067e-06        
                   4.870e-05         25.0000        1                 
 229                 0.3500           0.3500         2.620e-05        
                   1.244e-04         25.0000        1                 
 230                 0.3500           0.3500         1.419e-05        
                   1.182e-04         25.0000        1                 
 231                 0.3500           0.3499         1.177e-05        
                   7.252e-05         25.0000        1                 
 232                 0.3499           0.3499         1.023e-05        
                   4.424e-05         25.0000        1                 
 233                 0.3499           0.3500         6.566e-06        
                   9.330e-05         25.0000        1                 
 234                 0.3500           0.3500         2.092e-05        
                   7.626e-05         25.0000        1                 
 235                 0.3499           0.3499         1.300e-05        
                   3.565e-05         25.0000        1                 
 236                 0.3500           0.3497         1.172e-05        
                   1.466e-04         25.0000        1                 
 237                 0.3500           0.3499         2.741e-05        
                   2.287e-04         25.0000        1                 
 238                 0.3499           0.3500         1.427e-05        
                   4.808e-05         25.0000        1                 
 239                 0.3499           0.3499         9.824e-06        
                   3.421e-05         25.0000        1                 
 240                 0.3499           0.3499         1.268e-05        
                   4.492e-05         25.0000        1                 
 241                 0.3500           0.3500         1.006e-05        
                   1.345e-04         25.0000        1                 
 242                 0.3500           0.3499         1.948e-05        
                   9.788e-05         25.0000        1                 
 243                 0.3500           0.3498         1.653e-05        
                   1.625e-04         25.0000        1                 
 244                 0.3500           0.3500         2.300e-05        
                   7.688e-05         25.0000        1                 
 245                 0.3500           0.3498         2.939e-05        
                   1.135e-04         25.0000        1                 
 246                 0.3500           0.3500         1.598e-05        
                   5.509e-05         25.0000        1                 
 247                 0.3500           0.3500         1.633e-05        
                   1.154e-04         25.0000        1                 
 248                 0.3499           0.3500         1.124e-05        
                   6.298e-05         25.0000        1                 
 249                 0.3500           0.3499         1.383e-05        
                   1.622e-04         25.0000        1                 
 250                 0.3500           0.3500         1.020e-05        
                   2.692e-04         25.0000        1                 
 251                 0.3499           0.3500         1.770e-05        
                   3.573e-05         25.0000        1                 
 252                 0.3499           0.3500         8.569e-06        
                   5.188e-05         25.0000        1                 
 253                 0.3500           0.3500         1.608e-05        
                   1.829e-04         25.0000        1                 
 254                 0.3499           0.3500         1.060e-05        
                   4.725e-05         25.0000        1                 
 255                 0.3499           0.3500         1.173e-05        
                   4.783e-05         25.0000        1                 
 256                 0.3500           0.3500         1.754e-05        
                   5.994e-05         25.0000        1                 
 257                 0.3499           0.3500         1.257e-05        
                   6.456e-05         25.0000        1                 
 258                 0.3500           0.3500         2.585e-05        
                   8.691e-05         25.0000        1                 
 259                 0.3500           0.3500         2.613e-05        
                   2.391e-04         25.0000        1                 
 260                 0.3499           0.3500         8.414e-06        
                   3.957e-05         25.0000        1                 
 261                 0.3500           0.3499         2.335e-05        
                   5.521e-05         25.0000        1                 
 262                 0.3499           0.3499         1.252e-05        
                   3.975e-05         25.0000        1                 
 263                 0.3500           0.3499         2.066e-05        
                   8.677e-05         25.0000        1                 
 264                 0.3500           0.3500         2.860e-05        
                   1.349e-04         25.0000        1                 
 265                 0.3500           0.3500         1.441e-05        
                   1.397e-04         25.0000        1                 
 266                 0.3499           0.3500         1.093e-05        
                   3.457e-05         25.0000        1                 
 267                 0.3500           0.3499         1.647e-05        
                   9.815e-05         25.0000        1                 
 268                 0.3500           0.3499         2.561e-05        
                   9.382e-05         25.0000        1                 
 269                 0.3499           0.3500         1.019e-05        
                   4.789e-05         25.0000        1                 
 270                 0.3500           0.3499         1.124e-05        
                   1.138e-04         25.0000        1                 
 271                 0.3500           0.3500         1.698e-05        
                   5.422e-05         25.0000        1                 
 272                 0.3500           0.3500         2.829e-05        
                   1.446e-04         25.0000        1                 
 273                 0.3498           0.3500         7.039e-06        
                   3.188e-05         25.0000        1                 
 274                 0.3500           0.3500         3.866e-05        
                   1.586e-04         25.0000        1                 
 275                 0.3499           0.3500         1.099e-05        
                   3.753e-05         25.0000        1                 
 276                 0.3500           0.3500         1.874e-05        
                   1.038e-04         25.0000        1                 
 277                 0.3500           0.3500         1.566e-05        
                   2.180e-04         25.0000        1                 
 278                 0.3499           0.3500         7.967e-06        
                   3.946e-05         25.0000        1                 
 279                 0.3500           0.3499         1.642e-05        
                   8.621e-05         25.0000        1                 
 280                 0.3500           0.3499         1.494e-05        
                   6.894e-05         25.0000        1                 
 281                 0.3499           0.3499         1.187e-05        
                   1.792e-05         25.0000        1                 
 282                 0.3500           0.3499         1.392e-05        
                   7.321e-05         25.0000        1                 
 283                 0.3500           0.3499         8.520e-06        
                   9.990e-05         25.0000        1                 
 284                 0.3499           0.3500         9.974e-06        
                   3.445e-05         25.0000        1                 
 285                 0.3500           0.3500         9.933e-06        
                   6.334e-05         25.0000        1                 
 286                 0.3499           0.3500         1.450e-05        
                   3.476e-05         25.0000        1                 
 287                 0.3500           0.3500         2.141e-05        
                   1.423e-04         25.0000        1                 
 288                 0.3500           0.3500         1.699e-05        
                   5.994e-05         25.0000        1                 
 289                 0.3500           0.3500         2.275e-05        
                   9.616e-05         25.0000        1                 
 290                 0.3499           0.3500         1.036e-05        
                   5.117e-05         25.0000        1                 
 291                 0.3500           0.3500         1.612e-05        
                   1.352e-04         25.0000        1                 
 292                 0.3500           0.3500         2.259e-05        
                   9.483e-05         25.0000        1                 
 293                 0.3500           0.3499         1.065e-05        
                   1.403e-04         25.0000        1                 
 294                 0.3500           0.3500         2.970e-05        
                   1.716e-04         25.0000        1                 
 295                 0.3499           0.3499         9.397e-06        
                   5.304e-05         25.0000        1                 
 296                 0.3500           0.3500         1.952e-05        
                   7.209e-05         25.0000        1                 
 297                 0.3499           0.3500         1.418e-05        
                   4.200e-05         25.0000        1                 
 298                 0.3500           0.3500         1.726e-05        
                   1.013e-04         25.0000        1                 
 299                 0.3500           0.3499         1.430e-05        
                   9.639e-05         25.0000        1                 
 300                 0.3500           0.3499         3.353e-05        
                   9.249e-05         25.0000        1                 
