$DATA1 SOURCE='HSPICE' VERSION='F-2011.09 64-BIT'
.TITLE '* include model and subckts'
 index            write1           read1            write0            
                  read0            temper           alter#            
 1                   0.3500           0.3500         1.129e-05        
                   2.788e-05        -25.0000        1                 
 2                   0.3500           0.3500         6.058e-06        
                   1.876e-05        -25.0000        1                 
 3                   0.3500           0.3500         2.651e-05        
                   7.496e-05        -25.0000        1                 
 4                   0.3500           0.3500         3.291e-05        
                   6.997e-05        -25.0000        1                 
 5                   0.3500           0.3500         6.148e-06        
                   1.926e-05        -25.0000        1                 
 6                   0.3500           0.3500         1.225e-05        
                   3.175e-05        -25.0000        1                 
 7                   0.3500           0.3500         5.616e-06        
                   1.676e-05        -25.0000        1                 
 8                   0.3500           0.3498         5.172e-06        
                   1.563e-05        -25.0000        1                 
 9                   0.3500           0.3500         6.316e-06        
                   1.782e-05        -25.0000        1                 
 10                  0.3500           0.3500         1.707e-05        
                   4.731e-05        -25.0000        1                 
 11                  0.3499           0.3499         2.965e-06        
                   1.230e-05        -25.0000        1                 
 12                  0.3500           0.3500         1.844e-05        
                   4.802e-05        -25.0000        1                 
 13                  0.3500           0.3500         7.392e-06        
                   2.017e-05        -25.0000        1                 
 14                  0.3500           0.3500         8.651e-06        
                   2.226e-05        -25.0000        1                 
 15                  0.3500           0.3500         4.470e-06        
                   1.405e-05        -25.0000        1                 
 16                  0.3500           0.3500         1.265e-05        
                   3.426e-05        -25.0000        1                 
 17                  0.3500           0.3500         9.623e-06        
                   2.496e-05        -25.0000        1                 
 18                  0.3500           0.3500         6.144e-06        
                   1.706e-05        -25.0000        1                 
 19                  0.3500           0.3500         8.490e-06        
                   2.223e-05        -25.0000        1                 
 20                  0.3500           0.3500         7.063e-06        
                   2.052e-05        -25.0000        1                 
 21                  0.3500           0.3500         4.593e-06        
                   1.508e-05        -25.0000        1                 
 22                  0.3500           0.3500         8.671e-06        
                   2.274e-05        -25.0000        1                 
 23                  0.3500           0.3500         2.109e-05        
                   5.974e-05        -25.0000        1                 
 24                  0.3500           0.3500         5.005e-06        
                   1.490e-05        -25.0000        1                 
 25                  0.3500           0.3500         1.381e-05        
                   3.561e-05        -25.0000        1                 
 26                  0.3500           0.3500         5.693e-06        
                   1.769e-05        -25.0000        1                 
 27                  0.3500           0.3500         2.002e-05        
                   5.538e-05        -25.0000        1                 
 28                  0.3499           0.3499         2.818e-06        
                   1.401e-05        -25.0000        1                 
 29                  0.3500           0.3500         1.152e-05        
                   2.942e-05        -25.0000        1                 
 30                  0.3500           0.3500         4.430e-06        
                   1.732e-05        -25.0000        1                 
 31                  0.3500           0.3500         6.667e-06        
                   1.909e-05        -25.0000        1                 
 32                  0.3500           0.3500         5.721e-06        
                   1.838e-05        -25.0000        1                 
 33                  0.3500           0.3500         5.701e-06        
                   1.663e-05        -25.0000        1                 
 34                  0.3500           0.3500         1.770e-05        
                   5.009e-05        -25.0000        1                 
 35                  0.3500           0.3500         6.620e-06        
                   1.808e-05        -25.0000        1                 
 36                  0.3500           0.3500         3.747e-06        
                   1.531e-05        -25.0000        1                 
 37                  0.3500           0.3500         8.069e-06        
                   2.161e-05        -25.0000        1                 
 38                  0.3499           0.3499         2.853e-06        
                   1.118e-05        -25.0000        1                 
 39                  0.3500           0.3500         4.995e-06        
                   1.744e-05        -25.0000        1                 
 40                  0.3500           0.3500         1.856e-05        
                   5.215e-05        -25.0000        1                 
 41                  0.3499           0.3475         3.505e-06        
                   1.192e-05        -25.0000        1                 
 42                  0.3500           0.3500         8.114e-06        
                   2.179e-05        -25.0000        1                 
 43                  0.3500           0.3500         6.539e-06        
                   1.886e-05        -25.0000        1                 
 44                  0.3499           0.3499         3.569e-06        
                   1.274e-05        -25.0000        1                 
 45                  0.3500           0.3500         1.044e-05        
                   2.724e-05        -25.0000        1                 
 46                  0.3500           0.3500         1.073e-05        
                   2.643e-05        -25.0000        1                 
 47                  0.3500           0.3500         9.147e-06        
                   2.348e-05        -25.0000        1                 
 48                  0.3500           0.3500         1.161e-05        
                   2.746e-05        -25.0000        1                 
 49                  0.3500           0.3499         5.478e-06        
                   1.555e-05        -25.0000        1                 
 50                  0.3500           0.3500         5.807e-06        
                   1.810e-05        -25.0000        1                 
 51                  0.3500           0.3500         1.161e-05        
                   2.848e-05        -25.0000        1                 
 52                  0.3500           0.3500         6.728e-06        
                   1.960e-05        -25.0000        1                 
 53                  0.3500           0.3500         1.168e-05        
                   3.101e-05        -25.0000        1                 
 54                  0.3500           0.3500         1.155e-05        
                   2.927e-05        -25.0000        1                 
 55                  0.3500           0.3500         4.292e-06        
                   1.487e-05        -25.0000        1                 
 56                  0.3500           0.3500         1.061e-05        
                   2.836e-05        -25.0000        1                 
 57                  0.3499           0.3499         2.783e-06        
                   1.529e-05        -25.0000        1                 
 58                  0.3500           0.3500         7.128e-06        
                   1.987e-05        -25.0000        1                 
 59                  0.3500           0.3495         5.824e-06        
                   1.740e-05        -25.0000        1                 
 60                  0.3500           0.3500         4.480e-06        
                   1.551e-05        -25.0000        1                 
 61                  0.3500           0.3500         1.294e-05        
                   3.500e-05        -25.0000        1                 
 62                  0.3500           0.3500         3.951e-06        
                   1.513e-05        -25.0000        1                 
 63                  0.3500           0.3500         4.578e-06        
                   1.443e-05        -25.0000        1                 
 64                  0.3500           0.3499         4.169e-06        
                   1.754e-05        -25.0000        1                 
 65                  0.3500           0.3500         7.153e-06        
                   1.985e-05        -25.0000        1                 
 66                  0.3500           0.3499         3.983e-06        
                   1.362e-05        -25.0000        1                 
 67                  0.3500           0.3500         6.925e-06        
                   2.446e-05        -25.0000        1                 
 68                  0.3500           0.3500         6.859e-06        
                   1.875e-05        -25.0000        1                 
 69                  0.3500           0.3500         7.063e-06        
                   1.897e-05        -25.0000        1                 
 70                  0.3500           0.3500         1.595e-05        
                   4.342e-05        -25.0000        1                 
 71                  0.3500           0.3500         9.811e-06        
                   2.646e-05        -25.0000        1                 
 72                  0.3500           0.3500         1.400e-05        
                   3.854e-05        -25.0000        1                 
 73                  0.3500           0.3500         5.013e-06        
                   1.621e-05        -25.0000        1                 
 74                  0.3500           0.3500         1.490e-05        
                   4.115e-05        -25.0000        1                 
 75                  0.3500           0.3500         5.734e-06        
                   1.743e-05        -25.0000        1                 
 76                  0.3499           0.3475         3.969e-06        
                   1.138e-05        -25.0000        1                 
 77                  0.3500           0.3500         1.175e-05        
                   3.111e-05        -25.0000        1                 
 78                  0.3500           0.3500         1.716e-05        
                   4.536e-05        -25.0000        1                 
 79                  0.3500           0.3500         4.242e-06        
                   1.480e-05        -25.0000        1                 
 80                  0.3500           0.3500         7.165e-06        
                   1.984e-05        -25.0000        1                 
 81                  0.3500           0.3500         7.940e-06        
                   2.222e-05        -25.0000        1                 
 82                  0.3500           0.3500         1.244e-05        
                   3.361e-05        -25.0000        1                 
 83                  0.3500           0.3500         9.121e-06        
                   2.501e-05        -25.0000        1                 
 84                  0.3500           0.3500         7.666e-06        
                   2.085e-05        -25.0000        1                 
 85                  0.3500           0.3500         1.010e-05        
                   2.669e-05        -25.0000        1                 
 86                  0.3500           0.3499         6.937e-06        
                   1.927e-05        -25.0000        1                 
 87                  0.3500           0.3500         6.585e-06        
                   1.813e-05        -25.0000        1                 
 88                  0.3500           0.3500         6.578e-06        
                   1.858e-05        -25.0000        1                 
 89                  0.3500           0.3500         1.032e-05        
                   2.749e-05        -25.0000        1                 
 90                  0.3499           0.3499         3.389e-06        
                   1.238e-05        -25.0000        1                 
 91                  0.3500           0.3500         8.542e-06        
                   2.190e-05        -25.0000        1                 
 92                  0.3500           0.3500         1.429e-05        
                   3.576e-05        -25.0000        1                 
 93                  0.3500           0.3500         2.229e-05        
                   6.412e-05        -25.0000        1                 
 94                  0.3500           0.3500         9.806e-06        
                   2.519e-05        -25.0000        1                 
 95                  0.3500           0.3500         1.013e-05        
                   2.719e-05        -25.0000        1                 
 96                  0.3500           0.3500         9.409e-06        
                   2.528e-05        -25.0000        1                 
 97                  0.3499           0.3499         3.859e-06        
                   1.254e-05        -25.0000        1                 
 98                  0.3500           0.3500         7.740e-06        
                   2.079e-05        -25.0000        1                 
 99                  0.3500           0.3500         2.107e-05        
                   5.888e-05        -25.0000        1                 
 100                 0.3499           0.3224         2.632e-05        
                   2.387e-05        -25.0000        1                 
 101                 0.3500           0.3500         8.673e-06        
                   2.057e-05        -25.0000        1                 
 102                 0.3500           0.3500         7.557e-06        
                   2.082e-05        -25.0000        1                 
 103                 0.3500           0.3500         6.841e-06        
                   1.985e-05        -25.0000        1                 
 104                 0.3500           0.3500         5.980e-06        
                   1.730e-05        -25.0000        1                 
 105                 0.3500           0.3500         2.198e-05        
                   6.203e-05        -25.0000        1                 
 106                 0.3500           0.3500         8.364e-06        
                   2.304e-05        -25.0000        1                 
 107                 0.3500           0.3500         7.975e-06        
                   2.112e-05        -25.0000        1                 
 108                 0.3500           0.3500         1.429e-05        
                   3.547e-05        -25.0000        1                 
 109                 0.3500           0.3499         6.749e-06        
                   1.788e-05        -25.0000        1                 
 110                 0.3500           0.3500         1.460e-05        
                   4.134e-05        -25.0000        1                 
 111                 0.3500           0.3500         1.239e-05        
                   3.059e-05        -25.0000        1                 
 112                 0.3500           0.3500         1.695e-05        
                   4.646e-05        -25.0000        1                 
 113                 0.3500           0.3500         7.144e-06        
                   1.919e-05        -25.0000        1                 
 114                 0.3500           0.3500         7.444e-06        
                   2.021e-05        -25.0000        1                 
 115                 0.3500           0.3500         8.095e-06        
                   2.088e-05        -25.0000        1                 
 116                 0.3500           0.3500         1.112e-05        
                   2.846e-05        -25.0000        1                 
 117                 0.3499           0.3495         4.269e-06        
                   1.353e-05        -25.0000        1                 
 118                 0.3499           0.3499         3.162e-06        
                   1.496e-05        -25.0000        1                 
 119                 0.3500           0.3500         1.584e-05        
                   4.258e-05        -25.0000        1                 
 120                 0.3500           0.3500         1.116e-05        
                   2.905e-05        -25.0000        1                 
 121                 0.3500           0.3500         6.785e-06        
                   2.135e-05        -25.0000        1                 
 122                 0.3499           0.3496         4.670e-06        
                   1.366e-05        -25.0000        1                 
 123                 0.3500           0.3500         4.792e-06        
                   1.670e-05        -25.0000        1                 
 124                 0.3500           0.3500         1.640e-05        
                   4.664e-05        -25.0000        1                 
 125                 0.3500           0.3500         4.635e-06        
                   1.454e-05        -25.0000        1                 
 126                 0.3500           0.3500         1.038e-05        
                   2.689e-05        -25.0000        1                 
 127                 0.3499           0.3499         4.259e-06        
                   2.109e-05        -25.0000        1                 
 128                 0.3500           0.3500         1.175e-05        
                   3.106e-05        -25.0000        1                 
 129                 0.3500           0.3500         1.983e-05        
                   5.759e-05        -25.0000        1                 
 130                 0.3500           0.3500         3.909e-06        
                   1.391e-05        -25.0000        1                 
 131                 0.3500           0.3500         1.174e-05        
                   2.910e-05        -25.0000        1                 
 132                 0.3500           0.3500         6.370e-06        
                   1.798e-05        -25.0000        1                 
 133                 0.3500           0.3500         1.086e-05        
                   2.811e-05        -25.0000        1                 
 134                 0.3500           0.3500         1.426e-05        
                   4.088e-05        -25.0000        1                 
 135                 0.3500           0.3500         7.494e-06        
                   2.061e-05        -25.0000        1                 
 136                 0.3500           0.3500         7.259e-06        
                   2.080e-05        -25.0000        1                 
 137                 0.3500           0.3500         1.444e-05        
                   4.063e-05        -25.0000        1                 
 138                 0.3500           0.3500         2.331e-05        
                   6.673e-05        -25.0000        1                 
 139                 0.3500           0.3500         5.495e-06        
                   1.628e-05        -25.0000        1                 
 140                 0.3500           0.3500         1.533e-05        
                   4.193e-05        -25.0000        1                 
 141                 0.3500           0.3500         9.840e-06        
                   2.431e-05        -25.0000        1                 
 142                 0.3500           0.3499         3.524e-06        
                   1.291e-05        -25.0000        1                 
 143                 0.3500           0.3500         2.818e-05        
                   7.328e-05        -25.0000        1                 
 144                 0.3500           0.3500         8.488e-06        
                   2.324e-05        -25.0000        1                 
 145                 0.3500           0.3500         1.403e-05        
                   3.919e-05        -25.0000        1                 
 146                 0.3500           0.3500         8.056e-06        
                   2.121e-05        -25.0000        1                 
 147                 0.3499           0.3499         4.196e-06        
                   1.985e-05        -25.0000        1                 
 148                 0.3500           0.3500         1.177e-05        
                   2.977e-05        -25.0000        1                 
 149                 0.3500           0.3488         6.770e-06        
                   1.902e-05        -25.0000        1                 
 150                 0.3500           0.3500         1.706e-05        
                   4.612e-05        -25.0000        1                 
 151                 0.3500           0.3500         9.392e-06        
                   2.475e-05        -25.0000        1                 
 152                 0.3500           0.3500         1.903e-05        
                   5.287e-05        -25.0000        1                 
 153                 0.3500           0.3500         9.514e-06        
                   2.368e-05        -25.0000        1                 
 154                 0.3499           0.3328         4.246e-05        
                   3.234e-05        -25.0000        1                 
 155                 0.3500           0.3499         4.590e-06        
                   1.339e-05        -25.0000        1                 
 156                 0.3500           0.3500         1.014e-05        
                   2.464e-05        -25.0000        1                 
 157                 0.3500           0.3500         3.755e-06        
                   1.469e-05        -25.0000        1                 
 158                 0.3500           0.3500         7.869e-06        
                   2.089e-05        -25.0000        1                 
 159                 0.3500           0.3500         1.284e-05        
                   3.422e-05        -25.0000        1                 
 160                 0.3500           0.3500         8.474e-06        
                   2.340e-05        -25.0000        1                 
 161                 0.3500           0.3500         1.157e-05        
                   2.961e-05        -25.0000        1                 
 162                 0.3500           0.3500         4.182e-06        
                   1.594e-05        -25.0000        1                 
 163                 0.3500           0.3500         5.409e-06        
                   1.693e-05        -25.0000        1                 
 164                 0.3500           0.3500         5.235e-06        
                   1.568e-05        -25.0000        1                 
 165                 0.3500           0.3500         8.655e-06        
                   2.259e-05        -25.0000        1                 
 166                 0.3499           0.3499         4.063e-06        
                   1.224e-05        -25.0000        1                 
 167                 0.3500           0.3500         9.562e-06        
                   2.470e-05        -25.0000        1                 
 168                 0.3500           0.3500         5.071e-06        
                   1.882e-05        -25.0000        1                 
 169                 0.3500           0.3500         5.597e-06        
                   1.592e-05        -25.0000        1                 
 170                 0.3500           0.3500         1.986e-05        
                   5.507e-05        -25.0000        1                 
 171                 0.3500           0.3500         7.244e-06        
                   2.377e-05        -25.0000        1                 
 172                 0.3500           0.3500         4.726e-06        
                   1.455e-05        -25.0000        1                 
 173                 0.3499           0.3499         3.103e-06        
                   1.304e-05        -25.0000        1                 
 174                 0.3500           0.3463         6.034e-06        
                   1.710e-05        -25.0000        1                 
 175                 0.3500           0.3500         5.129e-06        
                   1.575e-05        -25.0000        1                 
 176                 0.3500           0.3500         1.068e-05        
                   2.663e-05        -25.0000        1                 
 177                 0.3500           0.3492         7.551e-06        
                   2.071e-05        -25.0000        1                 
 178                 0.3499           0.3499         3.620e-06        
                   1.209e-05        -25.0000        1                 
 179                 0.3500           0.3500         9.637e-06        
                   2.637e-05        -25.0000        1                 
 180                 0.3499           0.3487         7.189e-06        
                   1.935e-05        -25.0000        1                 
 181                 0.3500           0.3500         6.947e-06        
                   1.885e-05        -25.0000        1                 
 182                 0.3500           0.3500         1.479e-05        
                   4.154e-05        -25.0000        1                 
 183                 0.3500           0.3499         5.347e-06        
                   1.508e-05        -25.0000        1                 
 184                 0.3500           0.3499         8.716e-06        
                   2.235e-05        -25.0000        1                 
 185                 0.3500           0.3500         7.449e-06        
                   2.080e-05        -25.0000        1                 
 186                 0.3500           0.3500         1.012e-05        
                   2.723e-05        -25.0000        1                 
 187                 0.3500           0.3500         1.460e-05        
                   3.827e-05        -25.0000        1                 
 188                 0.3500           0.3500         1.511e-05        
                   4.025e-05        -25.0000        1                 
 189                 0.3500           0.3500         1.002e-05        
                   2.507e-05        -25.0000        1                 
 190                 0.3500           0.3469         6.056e-06        
                   1.712e-05        -25.0000        1                 
 191                 0.3500           0.3500         9.281e-06        
                   2.330e-05        -25.0000        1                 
 192                 0.3500           0.3500         1.033e-05        
                   2.807e-05        -25.0000        1                 
 193                 0.3500           0.3500         1.115e-05        
                   2.926e-05        -25.0000        1                 
 194                 0.3500           0.3500         3.788e-06        
                   1.573e-05        -25.0000        1                 
 195                 0.3500           0.3500         9.072e-06        
                   3.260e-05        -25.0000        1                 
 196                 0.3499           0.3426         1.057e-05        
                   2.357e-05        -25.0000        1                 
 197                 0.3500           0.3500         5.205e-06        
                   1.607e-05        -25.0000        1                 
 198                 0.3500           0.3500         1.200e-05        
                   2.974e-05        -25.0000        1                 
 199                 0.3499           0.3499         2.881e-06        
                   1.103e-05        -25.0000        1                 
 200                 0.3500           0.3500         1.465e-05        
                   3.882e-05        -25.0000        1                 
 201                 0.3500           0.3500         5.544e-06        
                   1.665e-05        -25.0000        1                 
 202                 0.3500           0.3500         1.142e-05        
                   3.015e-05        -25.0000        1                 
 203                 0.3500           0.3500         5.399e-06        
                   1.590e-05        -25.0000        1                 
 204                 0.3500           0.3499         3.694e-06        
                   1.368e-05        -25.0000        1                 
 205                 0.3500           0.3500         6.906e-06        
                   1.833e-05        -25.0000        1                 
 206                 0.3500           0.3500         9.448e-06        
                   2.522e-05        -25.0000        1                 
 207                 0.3500           0.3500         4.560e-06        
                   1.445e-05        -25.0000        1                 
 208                 0.3500           0.3500         8.072e-06        
                   2.192e-05        -25.0000        1                 
 209                 0.3500           0.3500         4.507e-06        
                   1.387e-05        -25.0000        1                 
 210                 0.3500           0.3500         1.069e-05        
                   2.744e-05        -25.0000        1                 
 211                 0.3499           0.3447         6.588e-06        
                   1.651e-05        -25.0000        1                 
 212                 0.3500           0.3499         3.691e-06        
                   1.497e-05        -25.0000        1                 
 213                 0.3500           0.3500         9.054e-06        
                   2.480e-05        -25.0000        1                 
 214                 0.3500           0.3498         1.107e-05        
                   3.024e-05        -25.0000        1                 
 215                 0.3500           0.3500         7.284e-06        
                   2.131e-05        -25.0000        1                 
 216                 0.3499           0.3499         3.841e-06        
                   1.207e-05        -25.0000        1                 
 217                 0.3500           0.3499         4.748e-06        
                   1.375e-05        -25.0000        1                 
 218                 0.3500           0.3500         4.948e-06        
                   1.542e-05        -25.0000        1                 
 219                 0.3500           0.3500         1.207e-05        
                   3.261e-05        -25.0000        1                 
 220                 0.3500           0.3500         5.729e-06        
                   1.700e-05        -25.0000        1                 
 221                 0.3500           0.3500         6.287e-06        
                   2.254e-05        -25.0000        1                 
 222                 0.3500           0.3500         5.695e-06        
                   1.696e-05        -25.0000        1                 
 223                 0.3500           0.3500         6.942e-06        
                   1.881e-05        -25.0000        1                 
 224                 0.3500           0.3500         1.257e-05        
                   3.265e-05        -25.0000        1                 
 225                 0.3500           0.3500         1.276e-05        
                   3.139e-05        -25.0000        1                 
 226                 0.3500           0.3500         1.253e-05        
                   3.320e-05        -25.0000        1                 
 227                 0.3500           0.3500         1.233e-05        
                   3.047e-05        -25.0000        1                 
 228                 0.3500           0.3500         4.413e-06        
                   1.485e-05        -25.0000        1                 
 229                 0.3500           0.3500         9.395e-06        
                   2.389e-05        -25.0000        1                 
 230                 0.3500           0.3500         1.037e-05        
                   2.540e-05        -25.0000        1                 
 231                 0.3500           0.3500         1.381e-05        
                   3.799e-05        -25.0000        1                 
 232                 0.3500           0.3500         2.002e-05        
                   5.660e-05        -25.0000        1                 
 233                 0.3499           0.3499         4.291e-06        
                   1.283e-05        -25.0000        1                 
 234                 0.3499           0.3499         4.948e-06        
                   1.380e-05        -25.0000        1                 
 235                 0.3500           0.3500         1.831e-05        
                   5.101e-05        -25.0000        1                 
 236                 0.3500           0.3500         5.680e-06        
                   1.690e-05        -25.0000        1                 
 237                 0.3500           0.3500         9.477e-06        
                   2.374e-05        -25.0000        1                 
 238                 0.3500           0.3500         1.108e-05        
                   2.882e-05        -25.0000        1                 
 239                 0.3500           0.3500         1.008e-05        
                   2.626e-05        -25.0000        1                 
 240                 0.3500           0.3500         1.112e-05        
                   2.904e-05        -25.0000        1                 
 241                 0.3500           0.3490         6.140e-06        
                   1.857e-05        -25.0000        1                 
 242                 0.3500           0.3500         8.623e-06        
                   2.269e-05        -25.0000        1                 
 243                 0.3500           0.3500         1.601e-05        
                   4.227e-05        -25.0000        1                 
 244                 0.3500           0.3500         1.186e-05        
                   3.370e-05        -25.0000        1                 
 245                 0.3500           0.3500         1.391e-05        
                   3.523e-05        -25.0000        1                 
 246                 0.3500           0.3500         8.900e-06        
                   2.404e-05        -25.0000        1                 
 247                 0.3500           0.3500         6.470e-06        
                   1.867e-05        -25.0000        1                 
 248                 0.3500           0.3500         9.915e-06        
                   2.632e-05        -25.0000        1                 
 249                 0.3500           0.3500         6.210e-06        
                   1.728e-05        -25.0000        1                 
 250                 0.3500           0.3500         1.357e-05        
                   3.576e-05        -25.0000        1                 
 251                 0.3500           0.3500         6.146e-06        
                   1.794e-05        -25.0000        1                 
 252                 0.3500           0.3500         5.073e-06        
                   1.614e-05        -25.0000        1                 
 253                 0.3499           0.3499         3.050e-06        
                   1.236e-05        -25.0000        1                 
 254                 0.3500           0.3500         7.537e-06        
                   2.074e-05        -25.0000        1                 
 255                 0.3500           0.3500         8.292e-06        
                   2.134e-05        -25.0000        1                 
 256                 0.3500           0.3500         1.508e-05        
                   4.377e-05        -25.0000        1                 
 257                 0.3499           0.3499         3.401e-06        
                   1.627e-05        -25.0000        1                 
 258                 0.3500           0.3499         1.032e-05        
                   2.729e-05        -25.0000        1                 
 259                 0.3499           0.3413         6.169e-06        
                   1.530e-05        -25.0000        1                 
 260                 0.3500           0.3500         8.163e-06        
                   2.324e-05        -25.0000        1                 
 261                 0.3500           0.3500         6.100e-06        
                   1.718e-05        -25.0000        1                 
 262                 0.3500           0.3500         1.575e-05        
                   4.330e-05        -25.0000        1                 
 263                 0.3500           0.3500         1.346e-05        
                   3.483e-05        -25.0000        1                 
 264                 0.3500           0.3500         7.584e-06        
                   2.097e-05        -25.0000        1                 
 265                 0.3500           0.3500         3.492e-05        
                   8.276e-05        -25.0000        1                 
 266                 0.3500           0.3500         1.299e-05        
                   3.635e-05        -25.0000        1                 
 267                 0.3500           0.3500         6.478e-06        
                   1.810e-05        -25.0000        1                 
 268                 0.3500           0.3500         9.518e-06        
                   2.529e-05        -25.0000        1                 
 269                 0.3499           0.3499         2.910e-06        
                   1.353e-05        -25.0000        1                 
 270                 0.3500           0.3500         4.886e-06        
                   1.457e-05        -25.0000        1                 
 271                 0.3500           0.3500         4.445e-06        
                   1.385e-05        -25.0000        1                 
 272                 0.3500           0.3500         5.267e-05        
                   6.444e-05        -25.0000        1                 
 273                 0.3500           0.3500         4.468e-06        
                   1.504e-05        -25.0000        1                 
 274                 0.3500           0.3500         1.316e-05        
                   3.533e-05        -25.0000        1                 
 275                 0.3500           0.3499         3.678e-06        
                   1.374e-05        -25.0000        1                 
 276                 0.3500           0.3500         1.080e-05        
                   2.828e-05        -25.0000        1                 
 277                 0.3500           0.3500         1.350e-05        
                   3.626e-05        -25.0000        1                 
 278                 0.3500           0.3497         7.580e-06        
                   2.101e-05        -25.0000        1                 
 279                 0.3500           0.3499         4.302e-06        
                   1.382e-05        -25.0000        1                 
 280                 0.3500           0.3500         9.361e-06        
                   2.516e-05        -25.0000        1                 
 281                 0.3500           0.3500         1.507e-05        
                   4.227e-05        -25.0000        1                 
 282                 0.3500           0.3500         8.420e-06        
                   2.219e-05        -25.0000        1                 
 283                 0.3500           0.3500         1.099e-05        
                   2.879e-05        -25.0000        1                 
 284                 0.3500           0.3500         2.122e-05        
                   5.975e-05        -25.0000        1                 
 285                 0.3500           0.3500         1.069e-05        
                   2.770e-05        -25.0000        1                 
 286                 0.3500           0.3499         1.270e-05        
                   3.562e-05        -25.0000        1                 
 287                 0.3500           0.3500         1.203e-05        
                   2.853e-05        -25.0000        1                 
 288                 0.3500           0.3500         1.131e-05        
                   3.059e-05        -25.0000        1                 
 289                 0.3500           0.3500         6.475e-06        
                   1.749e-05        -25.0000        1                 
 290                 0.3499           0.3498         4.042e-06        
                   1.255e-05        -25.0000        1                 
 291                 0.3500           0.3500         7.631e-06        
                   2.087e-05        -25.0000        1                 
 292                 0.3500           0.3497         9.627e-06        
                   2.658e-05        -25.0000        1                 
 293                 0.3500           0.3500         1.587e-05        
                   4.193e-05        -25.0000        1                 
 294                 0.3499           0.3498         3.172e-06        
                   1.112e-05        -25.0000        1                 
 295                 0.3425           0.3217         7.828e-04        
                   6.511e-05        -25.0000        1                 
 296                 0.3500           0.3500         3.884e-06        
                   1.420e-05        -25.0000        1                 
 297                 0.3500           0.3500         6.368e-06        
                   1.999e-05        -25.0000        1                 
 298                 0.3500           0.3500         6.350e-06        
                   1.713e-05        -25.0000        1                 
 299                 0.3500           0.3500         9.518e-06        
                   2.564e-05        -25.0000        1                 
 300                 0.3500           0.3500         9.076e-06        
                   2.403e-05        -25.0000        1                 
 301                 0.3500           0.3500         1.449e-05        
                   3.798e-05        -25.0000        1                 
 302                 0.3499           0.3499         4.092e-06        
                   1.283e-05        -25.0000        1                 
 303                 0.3500           0.3500         7.330e-06        
                   2.187e-05        -25.0000        1                 
 304                 0.3500           0.3500         8.179e-06        
                   2.175e-05        -25.0000        1                 
 305                 0.3500           0.3500         1.199e-05        
                   3.152e-05        -25.0000        1                 
 306                 0.3500           0.3500         8.713e-06        
                   2.236e-05        -25.0000        1                 
 307                 0.3500           0.3500         1.052e-05        
                   2.731e-05        -25.0000        1                 
 308                 0.3500           0.3500         6.052e-06        
                   1.719e-05        -25.0000        1                 
 309                 0.3500           0.3500         8.625e-06        
                   2.323e-05        -25.0000        1                 
 310                 0.3500           0.3500         5.865e-06        
                   1.734e-05        -25.0000        1                 
 311                 0.3500           0.3500         1.312e-05        
                   3.587e-05        -25.0000        1                 
 312                 0.3499           0.3499         3.658e-06        
                   1.212e-05        -25.0000        1                 
 313                 0.3500           0.3500         4.740e-06        
                   1.658e-05        -25.0000        1                 
 314                 0.3500           0.3499         3.607e-06        
                   1.421e-05        -25.0000        1                 
 315                 0.3500           0.3500         7.023e-06        
                   1.949e-05        -25.0000        1                 
 316                 0.3500           0.3500         6.550e-06        
                   1.836e-05        -25.0000        1                 
 317                 0.3500           0.3500         9.208e-06        
                   2.480e-05        -25.0000        1                 
 318                 0.3500           0.3500         6.826e-06        
                   1.898e-05        -25.0000        1                 
 319                 0.3500           0.3500         5.443e-06        
                   1.694e-05        -25.0000        1                 
 320                 0.3500           0.3500         8.271e-06        
                   2.252e-05        -25.0000        1                 
 321                 0.3500           0.3500         5.442e-06        
                   1.701e-05        -25.0000        1                 
 322                 0.3500           0.3500         4.467e-06        
                   1.476e-05        -25.0000        1                 
 323                 0.3500           0.3500         1.141e-05        
                   2.845e-05        -25.0000        1                 
 324                 0.3500           0.3499         1.327e-05        
                   3.673e-05        -25.0000        1                 
 325                 0.3500           0.3489         7.736e-06        
                   2.156e-05        -25.0000        1                 
 326                 0.3500           0.3496         1.036e-05        
                   2.898e-05        -25.0000        1                 
 327                 0.3500           0.3500         5.998e-06        
                   1.648e-05        -25.0000        1                 
 328                 0.3500           0.3500         8.971e-06        
                   2.358e-05        -25.0000        1                 
 329                 0.3500           0.3500         1.260e-05        
                   3.456e-05        -25.0000        1                 
 330                 0.3500           0.3500         5.298e-06        
                   1.527e-05        -25.0000        1                 
 331                 0.3500           0.3500         1.083e-05        
                   2.815e-05        -25.0000        1                 
 332                 0.3500           0.3500         1.372e-05        
                   3.610e-05        -25.0000        1                 
 333                 0.3500           0.3500         1.479e-05        
                   3.785e-05        -25.0000        1                 
 334                 0.3500           0.3500         8.833e-06        
                   2.181e-05        -25.0000        1                 
 335                 0.3500           0.3500         5.977e-06        
                   1.727e-05        -25.0000        1                 
 336                 0.3500           0.3500         9.092e-06        
                   2.444e-05        -25.0000        1                 
 337                 0.3499           0.3491         3.303e-06        
                   1.100e-05        -25.0000        1                 
 338                 0.3500           0.3500         1.280e-05        
                   3.253e-05        -25.0000        1                 
 339                 0.3500           0.3499         3.912e-06        
                   1.293e-05        -25.0000        1                 
 340                 0.3500           0.3500         4.579e-06        
                   1.440e-05        -25.0000        1                 
 341                 0.3500           0.3500         8.905e-06        
                   2.320e-05        -25.0000        1                 
 342                 0.3500           0.3500         8.342e-06        
                   2.197e-05        -25.0000        1                 
 343                 0.3500           0.3500         1.663e-05        
                   4.582e-05        -25.0000        1                 
 344                 0.3500           0.3500         7.362e-06        
                   2.128e-05        -25.0000        1                 
 345                 0.3500           0.3500         1.479e-05        
                   3.955e-05        -25.0000        1                 
 346                 0.3500           0.3500         8.670e-06        
                   2.393e-05        -25.0000        1                 
 347                 0.3499           0.3499         3.434e-06        
                   1.298e-05        -25.0000        1                 
 348                 0.3500           0.3500         1.216e-05        
                   3.325e-05        -25.0000        1                 
 349                 0.3500           0.3500         6.786e-06        
                   1.960e-05        -25.0000        1                 
 350                 0.3500           0.3500         5.568e-06        
                   1.711e-05        -25.0000        1                 
 351                 0.3500           0.3500         1.080e-05        
                   2.702e-05        -25.0000        1                 
 352                 0.3500           0.3500         5.060e-06        
                   1.675e-05        -25.0000        1                 
 353                 0.3500           0.3500         7.707e-06        
                   2.273e-05        -25.0000        1                 
 354                 0.3500           0.3500         1.261e-05        
                   3.365e-05        -25.0000        1                 
 355                 0.3500           0.3500         1.362e-05        
                   3.686e-05        -25.0000        1                 
 356                 0.3500           0.3500         9.729e-06        
                   2.564e-05        -25.0000        1                 
 357                 0.3500           0.3500         4.652e-06        
                   1.543e-05        -25.0000        1                 
 358                 0.3500           0.3500         1.342e-05        
                   3.702e-05        -25.0000        1                 
 359                 0.3500           0.3500         7.647e-06        
                   2.070e-05        -25.0000        1                 
 360                 0.3500           0.3500         8.501e-06        
                   2.360e-05        -25.0000        1                 
 361                 0.3500           0.3500         1.187e-05        
                   2.951e-05        -25.0000        1                 
 362                 0.3500           0.3500         1.375e-05        
                   3.529e-05        -25.0000        1                 
 363                 0.3500           0.3500         7.730e-06        
                   2.089e-05        -25.0000        1                 
 364                 0.3500           0.3500         1.249e-05        
                   3.099e-05        -25.0000        1                 
 365                 0.3500           0.3500         7.206e-06        
                   1.992e-05        -25.0000        1                 
 366                 0.3500           0.3500         8.501e-06        
                   2.202e-05        -25.0000        1                 
 367                 0.3500           0.3500         7.122e-06        
                   1.971e-05        -25.0000        1                 
 368                 0.3500           0.3500         8.589e-06        
                   2.208e-05        -25.0000        1                 
 369                 0.3499           0.3499         3.146e-06        
                   1.545e-05        -25.0000        1                 
 370                 0.3500           0.3500         1.264e-05        
                   3.281e-05        -25.0000        1                 
 371                 0.3500           0.3500         8.443e-06        
                   2.303e-05        -25.0000        1                 
 372                 0.3500           0.3500         8.686e-06        
                   2.221e-05        -25.0000        1                 
 373                 0.3500           0.3500         5.676e-06        
                   1.718e-05        -25.0000        1                 
 374                 0.3500           0.3500         6.593e-06        
                   1.820e-05        -25.0000        1                 
 375                 0.3500           0.3500         7.328e-06        
                   1.932e-05        -25.0000        1                 
 376                 0.3500           0.3500         1.411e-05        
                   3.887e-05        -25.0000        1                 
 377                 0.3500           0.3499         3.916e-06        
                   1.348e-05        -25.0000        1                 
 378                 0.3500           0.3500         6.169e-06        
                   1.679e-05        -25.0000        1                 
 379                 0.3500           0.3500         1.357e-05        
                   3.767e-05        -25.0000        1                 
 380                 0.3500           0.3500         5.768e-06        
                   1.664e-05        -25.0000        1                 
 381                 0.3500           0.3500         1.296e-05        
                   3.468e-05        -25.0000        1                 
 382                 0.3500           0.3500         1.297e-05        
                   3.428e-05        -25.0000        1                 
 383                 0.3500           0.3470         7.384e-06        
                   1.971e-05        -25.0000        1                 
 384                 0.3500           0.3499         3.820e-06        
                   1.292e-05        -25.0000        1                 
 385                 0.3500           0.3500         1.656e-05        
                   4.433e-05        -25.0000        1                 
 386                 0.3500           0.3500         7.297e-06        
                   2.017e-05        -25.0000        1                 
 387                 0.3500           0.3500         5.524e-06        
                   1.696e-05        -25.0000        1                 
 388                 0.3500           0.3500         1.327e-05        
                   3.450e-05        -25.0000        1                 
 389                 0.3500           0.3500         4.212e-06        
                   1.543e-05        -25.0000        1                 
 390                 0.3500           0.3489         8.764e-06        
                   2.390e-05        -25.0000        1                 
 391                 0.3500           0.3500         6.985e-06        
                   2.163e-05        -25.0000        1                 
 392                 0.3500           0.3500         1.173e-05        
                   3.130e-05        -25.0000        1                 
 393                 0.3500           0.3500         5.387e-06        
                   1.627e-05        -25.0000        1                 
 394                 0.3500           0.3500         7.837e-06        
                   2.133e-05        -25.0000        1                 
 395                 0.3500           0.3500         7.602e-06        
                   2.023e-05        -25.0000        1                 
 396                 0.3500           0.3500         9.219e-06        
                   2.352e-05        -25.0000        1                 
 397                 0.3499           0.3486         4.069e-06        
                   1.349e-05        -25.0000        1                 
 398                 0.3500           0.3500         8.088e-06        
                   2.213e-05        -25.0000        1                 
 399                 0.3500           0.3500         1.521e-05        
                   4.071e-05        -25.0000        1                 
 400                 0.3500           0.3500         5.749e-06        
                   1.736e-05        -25.0000        1                 
 401                 0.3500           0.3500         9.664e-06        
                   2.589e-05        -25.0000        1                 
 402                 0.3500           0.3499         4.176e-06        
                   1.359e-05        -25.0000        1                 
 403                 0.3500           0.3500         4.918e-06        
                   1.679e-05        -25.0000        1                 
 404                 0.3499           0.3499         3.672e-06        
                   1.250e-05        -25.0000        1                 
 405                 0.3500           0.3500         7.547e-06        
                   2.170e-05        -25.0000        1                 
 406                 0.3500           0.3500         4.284e-06        
                   1.583e-05        -25.0000        1                 
 407                 0.3500           0.3500         1.374e-05        
                   3.789e-05        -25.0000        1                 
 408                 0.3500           0.3500         7.533e-06        
                   2.097e-05        -25.0000        1                 
 409                 0.3500           0.3500         1.420e-05        
                   3.854e-05        -25.0000        1                 
 410                 0.3499           0.3499         3.466e-06        
                   1.243e-05        -25.0000        1                 
 411                 0.3500           0.3497         1.209e-05        
                   3.240e-05        -25.0000        1                 
 412                 0.3500           0.3500         6.723e-06        
                   2.065e-05        -25.0000        1                 
 413                 0.3500           0.3500         1.147e-05        
                   3.078e-05        -25.0000        1                 
 414                 0.3500           0.3500         6.624e-06        
                   1.888e-05        -25.0000        1                 
 415                 0.3500           0.3500         7.376e-06        
                   2.084e-05        -25.0000        1                 
 416                 0.3500           0.3500         7.439e-06        
                   2.046e-05        -25.0000        1                 
 417                 0.3500           0.3500         1.442e-05        
                   3.842e-05        -25.0000        1                 
 418                 0.3500           0.3500         6.111e-06        
                   1.714e-05        -25.0000        1                 
 419                 0.3500           0.3500         4.547e-06        
                   1.993e-05        -25.0000        1                 
 420                 0.3500           0.3500         1.299e-05        
                   3.385e-05        -25.0000        1                 
 421                 0.3499           0.3497         7.270e-06        
                   1.933e-05        -25.0000        1                 
 422                 0.3500           0.3500         1.939e-05        
                   5.430e-05        -25.0000        1                 
 423                 0.3500           0.3500         1.143e-05        
                   2.665e-05        -25.0000        1                 
 424                 0.3500           0.3499         3.495e-06        
                   1.428e-05        -25.0000        1                 
 425                 0.3500           0.3500         1.169e-05        
                   2.867e-05        -25.0000        1                 
 426                 0.3500           0.3500         8.170e-06        
                   2.180e-05        -25.0000        1                 
 427                 0.3500           0.3500         7.722e-06        
                   2.047e-05        -25.0000        1                 
 428                 0.3499           0.3498         2.071e-06        
                   1.511e-05        -25.0000        1                 
 429                 0.3500           0.3499         1.184e-05        
                   3.302e-05        -25.0000        1                 
 430                 0.3500           0.3500         7.425e-06        
                   2.123e-05        -25.0000        1                 
 431                 0.3500           0.3500         8.032e-06        
                   2.159e-05        -25.0000        1                 
 432                 0.3500           0.3500         2.666e-05        
                   7.811e-05        -25.0000        1                 
 433                 0.3500           0.3500         4.083e-06        
                   1.609e-05        -25.0000        1                 
 434                 0.3500           0.3500         5.757e-06        
                   1.651e-05        -25.0000        1                 
 435                 0.3500           0.3500         1.196e-05        
                   3.186e-05        -25.0000        1                 
 436                 0.3500           0.3500         4.951e-06        
                   1.643e-05        -25.0000        1                 
 437                 0.3500           0.3499         6.968e-06        
                   1.895e-05        -25.0000        1                 
 438                 0.3500           0.3500         8.574e-06        
                   2.273e-05        -25.0000        1                 
 439                 0.3500           0.3500         4.528e-06        
                   1.645e-05        -25.0000        1                 
 440                 0.3500           0.3500         7.427e-06        
                   2.063e-05        -25.0000        1                 
 441                 0.3500           0.3500         1.008e-05        
                   2.724e-05        -25.0000        1                 
 442                 0.3500           0.3500         1.062e-05        
                   2.882e-05        -25.0000        1                 
 443                 0.3500           0.3500         8.176e-06        
                   2.220e-05        -25.0000        1                 
 444                 0.3500           0.3500         8.507e-06        
                   2.269e-05        -25.0000        1                 
 445                 0.3500           0.3500         3.763e-06        
                   1.408e-05        -25.0000        1                 
 446                 0.3499           0.3395         9.605e-05        
                   5.297e-05        -25.0000        1                 
 447                 0.3500           0.3500         1.061e-05        
                   2.721e-05        -25.0000        1                 
 448                 0.3499           0.3499         3.076e-06        
                   1.184e-05        -25.0000        1                 
 449                 0.3500           0.3500         8.326e-06        
                   2.291e-05        -25.0000        1                 
 450                 0.3500           0.3500         6.736e-06        
                   1.855e-05        -25.0000        1                 
 451                 0.3500           0.3500         8.245e-06        
                   2.229e-05        -25.0000        1                 
 452                 0.3500           0.3499         7.845e-06        
                   2.166e-05        -25.0000        1                 
 453                 0.3500           0.3500         5.683e-06        
                   1.690e-05        -25.0000        1                 
 454                 0.3500           0.3456         5.703e-06        
                   1.652e-05        -25.0000        1                 
 455                 0.3500           0.3500         5.296e-06        
                   1.626e-05        -25.0000        1                 
 456                 0.3500           0.3500         1.097e-05        
                   2.798e-05        -25.0000        1                 
 457                 0.3500           0.3500         9.181e-06        
                   2.425e-05        -25.0000        1                 
 458                 0.3500           0.3500         1.266e-05        
                   3.466e-05        -25.0000        1                 
 459                 0.3500           0.3499         7.583e-06        
                   2.110e-05        -25.0000        1                 
 460                 0.3500           0.3495         1.240e-05        
                   3.329e-05        -25.0000        1                 
 461                 0.3500           0.3500         1.430e-05        
                   3.664e-05        -25.0000        1                 
 462                 0.3500           0.3500         8.631e-06        
                   2.294e-05        -25.0000        1                 
 463                 0.3500           0.3500         8.718e-06        
                   2.334e-05        -25.0000        1                 
 464                 0.3500           0.3500         4.843e-06        
                   1.621e-05        -25.0000        1                 
 465                 0.3500           0.3500         1.498e-05        
                   4.274e-05        -25.0000        1                 
 466                 0.3500           0.3500         9.004e-06        
                   2.511e-05        -25.0000        1                 
 467                 0.3500           0.3500         7.157e-06        
                   2.041e-05        -25.0000        1                 
 468                 0.3500           0.3500         6.684e-06        
                   1.832e-05        -25.0000        1                 
 469                 0.3500           0.3500         1.412e-05        
                   3.851e-05        -25.0000        1                 
 470                 0.3500           0.3499         4.322e-06        
                   1.358e-05        -25.0000        1                 
 471                 0.3500           0.3500         1.092e-05        
                   2.731e-05        -25.0000        1                 
 472                 0.3500           0.3500         7.095e-06        
                   2.208e-05        -25.0000        1                 
 473                 0.3500           0.3499         4.954e-06        
                   1.471e-05        -25.0000        1                 
 474                 0.3500           0.3500         4.432e-06        
                   1.884e-05        -25.0000        1                 
 475                 0.3500           0.3499         4.590e-06        
                   1.473e-05        -25.0000        1                 
 476                 0.3500           0.3500         7.512e-06        
                   2.524e-05        -25.0000        1                 
 477                 0.3500           0.3500         5.081e-06        
                   1.581e-05        -25.0000        1                 
 478                 0.3499           0.3496         5.754e-06        
                   1.564e-05        -25.0000        1                 
 479                 0.3500           0.3500         6.313e-06        
                   1.764e-05        -25.0000        1                 
 480                 0.3497           0.3497         1.779e-06        
                   1.947e-05        -25.0000        1                 
 481                 0.3500           0.3498         1.010e-05        
                   2.645e-05        -25.0000        1                 
 482                 0.3500           0.3500         6.869e-06        
                   1.939e-05        -25.0000        1                 
 483                 0.3500           0.3500         8.323e-06        
                   2.151e-05        -25.0000        1                 
 484                 0.3500           0.3499         4.363e-06        
                   1.328e-05        -25.0000        1                 
 485                 0.3500           0.3500         5.664e-06        
                   1.595e-05        -25.0000        1                 
 486                 0.3500           0.3500         5.799e-06        
                   1.766e-05        -25.0000        1                 
 487                 0.3500           0.3500         1.142e-05        
                   2.935e-05        -25.0000        1                 
 488                 0.3500           0.3500         6.713e-06        
                   1.860e-05        -25.0000        1                 
 489                 0.3500           0.3500         1.468e-05        
                   3.864e-05        -25.0000        1                 
 490                 0.3500           0.3500         1.060e-05        
                   2.800e-05        -25.0000        1                 
 491                 0.3500           0.3500         7.022e-06        
                   1.979e-05        -25.0000        1                 
 492                 0.3500           0.3500         2.289e-05        
                   6.161e-05        -25.0000        1                 
 493                 0.3500           0.3500         5.933e-06        
                   1.858e-05        -25.0000        1                 
 494                 0.3500           0.3500         5.527e-06        
                   1.710e-05        -25.0000        1                 
 495                 0.3500           0.3500         8.447e-06        
                   2.214e-05        -25.0000        1                 
 496                 0.3500           0.3500         5.311e-06        
                   1.561e-05        -25.0000        1                 
 497                 0.3500           0.3500         8.003e-06        
                   2.100e-05        -25.0000        1                 
 498                 0.3500           0.3500         8.789e-06        
                   2.413e-05        -25.0000        1                 
 499                 0.3500           0.3500         7.229e-06        
                   1.918e-05        -25.0000        1                 
 500                 0.3500           0.3499         8.903e-06        
                   2.516e-05        -25.0000        1                 
 501                 0.3500           0.3499         8.729e-06        
                   2.234e-05        -25.0000        1                 
 502                 0.3500           0.3500         1.404e-05        
                   3.834e-05        -25.0000        1                 
 503                 0.3500           0.3499         2.207e-05        
                   5.043e-05        -25.0000        1                 
 504                 0.3500           0.3500         5.583e-06        
                   1.682e-05        -25.0000        1                 
 505                 0.3500           0.3500         4.002e-06        
                   1.471e-05        -25.0000        1                 
 506                 0.3500           0.3500         7.207e-06        
                   2.023e-05        -25.0000        1                 
 507                 0.3500           0.3500         8.886e-06        
                   2.232e-05        -25.0000        1                 
 508                 0.3500           0.3500         1.051e-05        
                   2.691e-05        -25.0000        1                 
 509                 0.3500           0.3500         1.342e-05        
                   3.254e-05        -25.0000        1                 
 510                 0.3500           0.3500         1.379e-05        
                   3.808e-05        -25.0000        1                 
 511                 0.3500           0.3500         5.114e-06        
                   1.605e-05        -25.0000        1                 
 512                 0.3500           0.3500         4.724e-06        
                   1.555e-05        -25.0000        1                 
 513                 0.3499           0.3499         2.658e-06        
                   1.497e-05        -25.0000        1                 
 514                 0.3499           0.3497         4.659e-06        
                   1.415e-05        -25.0000        1                 
 515                 0.3499           0.3499         3.513e-06        
                   1.261e-05        -25.0000        1                 
 516                 0.3500           0.3500         1.036e-05        
                   2.645e-05        -25.0000        1                 
 517                 0.3500           0.3500         1.336e-05        
                   3.553e-05        -25.0000        1                 
 518                 0.3500           0.3500         4.897e-06        
                   1.495e-05        -25.0000        1                 
 519                 0.3500           0.3500         9.775e-06        
                   2.694e-05        -25.0000        1                 
 520                 0.3500           0.3500         1.099e-05        
                   2.924e-05        -25.0000        1                 
 521                 0.3500           0.3500         5.684e-06        
                   1.651e-05        -25.0000        1                 
 522                 0.3500           0.3500         9.895e-06        
                   2.649e-05        -25.0000        1                 
 523                 0.3500           0.3500         1.019e-05        
                   2.642e-05        -25.0000        1                 
 524                 0.3500           0.3500         6.678e-06        
                   1.811e-05        -25.0000        1                 
 525                 0.3500           0.3500         1.594e-05        
                   4.349e-05        -25.0000        1                 
 526                 0.3499           0.3499         3.648e-06        
                   1.199e-05        -25.0000        1                 
 527                 0.3500           0.3500         1.434e-05        
                   3.915e-05        -25.0000        1                 
 528                 0.3500           0.3500         3.772e-06        
                   1.513e-05        -25.0000        1                 
 529                 0.3500           0.3500         7.015e-06        
                   2.019e-05        -25.0000        1                 
 530                 0.3499           0.3499         3.916e-06        
                   1.252e-05        -25.0000        1                 
 531                 0.3500           0.3500         1.024e-05        
                   2.660e-05        -25.0000        1                 
 532                 0.3500           0.3500         1.402e-05        
                   3.660e-05        -25.0000        1                 
 533                 0.3500           0.3499         3.672e-06        
                   1.300e-05        -25.0000        1                 
 534                 0.3500           0.3500         5.404e-06        
                   1.636e-05        -25.0000        1                 
 535                 0.3500           0.3500         5.957e-06        
                   1.687e-05        -25.0000        1                 
 536                 0.3499           0.3499         3.023e-06        
                   1.456e-05        -25.0000        1                 
 537                 0.3394           0.3498         1.196e-03        
                   1.177e-04        -25.0000        1                 
 538                 0.3500           0.3500         7.908e-06        
                   2.062e-05        -25.0000        1                 
 539                 0.3500           0.3500         2.013e-05        
                   5.636e-05        -25.0000        1                 
 540                 0.3500           0.3499         6.722e-06        
                   1.780e-05        -25.0000        1                 
 541                 0.3500           0.3499         1.190e-05        
                   3.162e-05        -25.0000        1                 
 542                 0.3500           0.3500         1.167e-05        
                   3.077e-05        -25.0000        1                 
 543                 0.3500           0.3500         1.568e-05        
                   4.409e-05        -25.0000        1                 
 544                 0.3500           0.3499         8.908e-06        
                   2.250e-05        -25.0000        1                 
 545                 0.3500           0.3500         7.313e-06        
                   2.042e-05        -25.0000        1                 
 546                 0.3500           0.3500         8.721e-06        
                   2.390e-05        -25.0000        1                 
 547                 0.3500           0.3500         7.572e-06        
                   2.165e-05        -25.0000        1                 
 548                 0.3500           0.3500         1.151e-05        
                   2.989e-05        -25.0000        1                 
 549                 0.3500           0.3500         1.203e-05        
                   3.248e-05        -25.0000        1                 
 550                 0.3500           0.3500         1.364e-05        
                   3.635e-05        -25.0000        1                 
 551                 0.3500           0.3500         6.930e-06        
                   1.903e-05        -25.0000        1                 
 552                 0.3500           0.3500         6.102e-06        
                   2.005e-05        -25.0000        1                 
 553                 0.3500           0.3500         2.172e-05        
                   6.044e-05        -25.0000        1                 
 554                 0.3499           0.3499         3.168e-06        
                   1.202e-05        -25.0000        1                 
 555                 0.3500           0.3500         1.229e-05        
                   3.297e-05        -25.0000        1                 
 556                 0.3500           0.3500         1.391e-05        
                   3.785e-05        -25.0000        1                 
 557                 0.3500           0.3500         8.939e-06        
                   2.373e-05        -25.0000        1                 
 558                 0.3500           0.3500         6.856e-06        
                   1.907e-05        -25.0000        1                 
 559                 0.3500           0.3500         7.576e-06        
                   2.023e-05        -25.0000        1                 
 560                 0.3500           0.3500         1.723e-05        
                   4.809e-05        -25.0000        1                 
 561                 0.3500           0.3500         1.480e-05        
                   3.896e-05        -25.0000        1                 
 562                 0.3500           0.3500         6.732e-06        
[...]
                   1.436e-05        -25.0000        1                 
 4861                0.3500           0.3500         5.964e-06        
                   1.719e-05        -25.0000        1                 
 4862                0.3500           0.3500         4.739e-06        
                   1.736e-05        -25.0000        1                 
 4863                0.3500           0.3500         7.764e-06        
                   2.102e-05        -25.0000        1                 
 4864                0.3500           0.3500         5.568e-06        
                   1.659e-05        -25.0000        1                 
 4865                0.3500           0.3500         1.526e-05        
                   4.124e-05        -25.0000        1                 
 4866                0.3500           0.3500         2.726e-05        
                   7.287e-05        -25.0000        1                 
 4867                0.3500           0.3500         1.213e-05        
                   3.162e-05        -25.0000        1                 
 4868                0.3500           0.3500         6.636e-06        
                   1.911e-05        -25.0000        1                 
 4869                0.3500           0.3500         3.542e-05        
                   8.311e-05        -25.0000        1                 
 4870                0.3500           0.3500         7.710e-06        
                   2.157e-05        -25.0000        1                 
 4871                0.3500           0.3500         9.674e-06        
                   2.478e-05        -25.0000        1                 
 4872                0.3500           0.3500         1.119e-05        
                   2.737e-05        -25.0000        1                 
 4873                0.3500           0.3499         1.998e-05        
                   5.709e-05        -25.0000        1                 
 4874                0.3500           0.3500         1.042e-05        
                   2.765e-05        -25.0000        1                 
 4875                0.3500           0.3500         4.573e-06        
                   1.419e-05        -25.0000        1                 
 4876                0.3500           0.3500         1.385e-05        
                   3.724e-05        -25.0000        1                 
 4877                0.3500           0.3500         5.275e-06        
                   1.811e-05        -25.0000        1                 
 4878                0.3500           0.3500         1.181e-05        
                   2.833e-05        -25.0000        1                 
 4879                0.3500           0.3500         1.512e-05        
                   4.115e-05        -25.0000        1                 
 4880                0.3500           0.3500         6.433e-06        
                   1.821e-05        -25.0000        1                 
 4881                0.3500           0.3500         1.383e-05        
                   3.828e-05        -25.0000        1                 
 4882                0.3500           0.3500         6.885e-06        
                   2.034e-05        -25.0000        1                 
 4883                0.3500           0.3500         1.050e-05        
                   2.809e-05        -25.0000        1                 
 4884                0.3500           0.3500         1.028e-05        
                   2.798e-05        -25.0000        1                 
 4885                0.3500           0.3500         9.562e-06        
                   2.464e-05        -25.0000        1                 
 4886                0.3500           0.3500         4.533e-06        
                   1.651e-05        -25.0000        1                 
 4887                0.3500           0.3500         7.196e-06        
                   1.982e-05        -25.0000        1                 
 4888                0.3500           0.3500         4.173e-06        
                   1.479e-05        -25.0000        1                 
 4889                0.3500           0.3500         6.439e-06        
                   1.859e-05        -25.0000        1                 
 4890                0.3500           0.3500         2.647e-05        
                   7.405e-05        -25.0000        1                 
 4891                0.3500           0.3500         6.461e-06        
                   1.833e-05        -25.0000        1                 
 4892                0.3500           0.3500         6.610e-06        
                   1.779e-05        -25.0000        1                 
 4893                0.3500           0.3500         1.838e-05        
                   5.197e-05        -25.0000        1                 
 4894                0.3500           0.3500         8.063e-06        
                   2.316e-05        -25.0000        1                 
 4895                0.3500           0.3500         1.674e-05        
                   4.591e-05        -25.0000        1                 
 4896                0.3500           0.3500         1.135e-05        
                   3.051e-05        -25.0000        1                 
 4897                0.3500           0.3499         4.550e-06        
                   1.390e-05        -25.0000        1                 
 4898                0.3500           0.3500         1.079e-05        
                   2.806e-05        -25.0000        1                 
 4899                0.3500           0.3500         5.109e-06        
                   1.656e-05        -25.0000        1                 
 4900                0.3500           0.3500         5.958e-06        
                   1.855e-05        -25.0000        1                 
 4901                0.3500           0.3500         1.026e-05        
                   2.594e-05        -25.0000        1                 
 4902                0.3500           0.3500         6.151e-06        
                   1.811e-05        -25.0000        1                 
 4903                0.3500           0.3500         1.458e-05        
                   4.201e-05        -25.0000        1                 
 4904                0.3500           0.3500         1.153e-05        
                   2.787e-05        -25.0000        1                 
 4905                0.3500           0.3500         6.967e-06        
                   2.000e-05        -25.0000        1                 
 4906                0.3500           0.3500         1.108e-05        
                   2.978e-05        -25.0000        1                 
 4907                0.3500           0.3500         4.165e-06        
                   1.411e-05        -25.0000        1                 
 4908                0.3500           0.3500         1.603e-05        
                   4.501e-05        -25.0000        1                 
 4909                0.3499           0.3499         3.293e-06        
                   1.428e-05        -25.0000        1                 
 4910                0.3500           0.3500         1.197e-05        
                   3.088e-05        -25.0000        1                 
 4911                0.3500           0.3500         8.970e-06        
                   2.408e-05        -25.0000        1                 
 4912                0.3499           0.3490         1.224e-05        
                   3.238e-05        -25.0000        1                 
 4913                0.3500           0.3500         1.567e-05        
                   4.267e-05        -25.0000        1                 
 4914                0.3500           0.3500         7.187e-06        
                   1.960e-05        -25.0000        1                 
 4915                0.3499           0.3334         3.292e-05        
                   3.218e-05        -25.0000        1                 
 4916                0.3500           0.3500         6.299e-06        
                   1.782e-05        -25.0000        1                 
 4917                0.3500           0.3500         5.440e-06        
                   1.531e-05        -25.0000        1                 
 4918                0.3225           0.3208         1.921e-03        
                   8.839e-05        -25.0000        1                 
 4919                0.3500           0.3500         4.504e-06        
                   1.614e-05        -25.0000        1                 
 4920                0.3500           0.3500         7.716e-06        
                   2.046e-05        -25.0000        1                 
 4921                0.3500           0.3500         6.874e-06        
                   2.033e-05        -25.0000        1                 
 4922                0.3500           0.3500         7.878e-06        
                   2.127e-05        -25.0000        1                 
 4923                0.3500           0.3500         5.805e-06        
                   1.616e-05        -25.0000        1                 
 4924                0.3500           0.3500         7.840e-06        
                   2.173e-05        -25.0000        1                 
 4925                0.3500           0.3499         1.120e-05        
                   2.983e-05        -25.0000        1                 
 4926                0.3500           0.3500         1.487e-05        
                   3.994e-05        -25.0000        1                 
 4927                0.3500           0.3500         1.063e-05        
                   2.721e-05        -25.0000        1                 
 4928                0.3500           0.3499         5.784e-06        
                   1.601e-05        -25.0000        1                 
 4929                0.3500           0.3499         4.572e-06        
                   1.385e-05        -25.0000        1                 
 4930                0.3500           0.3500         4.813e-06        
                   1.467e-05        -25.0000        1                 
 4931                0.3500           0.3500         1.292e-05        
                   3.169e-05        -25.0000        1                 
 4932                0.3500           0.3500         8.654e-06        
                   2.159e-05        -25.0000        1                 
 4933                0.3500           0.3500         5.845e-05        
                   7.056e-05        -25.0000        1                 
 4934                0.3500           0.3499         4.490e-06        
                   1.411e-05        -25.0000        1                 
 4935                0.3500           0.3500         1.297e-05        
                   3.463e-05        -25.0000        1                 
 4936                0.3500           0.3500         9.497e-06        
                   2.498e-05        -25.0000        1                 
 4937                0.3500           0.3500         6.881e-06        
                   1.936e-05        -25.0000        1                 
 4938                0.3500           0.3500         6.781e-06        
                   2.093e-05        -25.0000        1                 
 4939                0.3500           0.3500         1.039e-05        
                   2.691e-05        -25.0000        1                 
 4940                0.3500           0.3500         7.883e-06        
                   2.118e-05        -25.0000        1                 
 4941                0.3499           0.3499         4.007e-06        
                   1.219e-05        -25.0000        1                 
 4942                0.3499           0.3499         3.410e-06        
                   1.300e-05        -25.0000        1                 
 4943                0.3500           0.3500         1.057e-05        
                   2.658e-05        -25.0000        1                 
 4944                0.3500           0.3499         1.505e-05        
                   4.072e-05        -25.0000        1                 
 4945                0.3500           0.3500         5.648e-06        
                   1.618e-05        -25.0000        1                 
 4946                0.3500           0.3500         6.359e-06        
                   1.759e-05        -25.0000        1                 
 4947                0.3500           0.3500         1.153e-05        
                   2.973e-05        -25.0000        1                 
 4948                0.3500           0.3500         8.093e-06        
                   2.217e-05        -25.0000        1                 
 4949                0.3500           0.3500         6.144e-06        
                   1.971e-05        -25.0000        1                 
 4950                0.3500           0.3500         2.132e-05        
                   6.058e-05        -25.0000        1                 
 4951                0.3500           0.3500         8.022e-06        
                   2.104e-05        -25.0000        1                 
 4952                0.3500           0.3500         4.818e-06        
                   1.588e-05        -25.0000        1                 
 4953                0.3500           0.3500         9.272e-06        
                   2.463e-05        -25.0000        1                 
 4954                0.3500           0.3500         1.307e-05        
                   3.508e-05        -25.0000        1                 
 4955                0.3500           0.3499         4.022e-06        
                   1.325e-05        -25.0000        1                 
 4956                0.3500           0.3500         6.825e-06        
                   1.873e-05        -25.0000        1                 
 4957                0.3499           0.3499         3.393e-06        
                   1.563e-05        -25.0000        1                 
 4958                0.3500           0.3500         9.576e-06        
                   2.527e-05        -25.0000        1                 
 4959                0.3500           0.3500         9.282e-06        
                   2.358e-05        -25.0000        1                 
 4960                0.3500           0.3500         1.039e-05        
                   2.700e-05        -25.0000        1                 
 4961                0.3500           0.3500         4.523e-05        
                   1.046e-04        -25.0000        1                 
 4962                0.3499           0.3499         2.977e-06        
                   1.178e-05        -25.0000        1                 
 4963                0.3500           0.3499         5.333e-06        
                   1.606e-05        -25.0000        1                 
 4964                0.3500           0.3500         5.606e-06        
                   1.948e-05        -25.0000        1                 
 4965                0.3500           0.3500         6.037e-06        
                   1.728e-05        -25.0000        1                 
 4966                0.3500           0.3500         6.520e-06        
                   2.145e-05        -25.0000        1                 
 4967                0.3500           0.3500         7.712e-06        
                   2.037e-05        -25.0000        1                 
 4968                0.3500           0.3500         6.879e-06        
                   1.979e-05        -25.0000        1                 
 4969                0.3500           0.3500         6.893e-06        
                   1.842e-05        -25.0000        1                 
 4970                0.3500           0.3500         1.377e-05        
                   3.618e-05        -25.0000        1                 
 4971                0.3500           0.3500         4.493e-06        
                   1.703e-05        -25.0000        1                 
 4972                0.3500           0.3500         6.527e-06        
                   1.815e-05        -25.0000        1                 
 4973                0.3500           0.3500         9.117e-06        
                   2.518e-05        -25.0000        1                 
 4974                0.3500           0.3500         8.311e-06        
                   2.258e-05        -25.0000        1                 
 4975                0.3500           0.3500         6.064e-06        
                   1.841e-05        -25.0000        1                 
 4976                0.3500           0.3500         1.073e-05        
                   2.822e-05        -25.0000        1                 
 4977                0.3500           0.3500         5.746e-06        
                   1.624e-05        -25.0000        1                 
 4978                0.3499           0.3494         4.414e-06        
                   1.346e-05        -25.0000        1                 
 4979                0.3500           0.3500         8.313e-06        
                   2.280e-05        -25.0000        1                 
 4980                0.3500           0.3499         7.254e-06        
                   1.901e-05        -25.0000        1                 
 4981                0.3500           0.3500         1.008e-05        
                   2.666e-05        -25.0000        1                 
 4982                0.3500           0.3500         1.049e-05        
                   2.718e-05        -25.0000        1                 
 4983                0.3500           0.3500         7.331e-06        
                   2.064e-05        -25.0000        1                 
 4984                0.3500           0.3500         8.509e-06        
                   2.264e-05        -25.0000        1                 
 4985                0.3500           0.3500         5.746e-06        
                   1.736e-05        -25.0000        1                 
 4986                0.3500           0.3500         4.332e-06        
                   1.607e-05        -25.0000        1                 
 4987                0.3500           0.3500         5.726e-06        
                   1.789e-05        -25.0000        1                 
 4988                0.3499           0.3333         3.115e-05        
                   2.991e-05        -25.0000        1                 
 4989                0.3500           0.3499         1.022e-05        
                   2.741e-05        -25.0000        1                 
 4990                0.3500           0.3500         1.626e-05        
                   4.535e-05        -25.0000        1                 
 4991                0.3500           0.3500         4.866e-06        
                   1.578e-05        -25.0000        1                 
 4992                0.3500           0.3500         1.139e-05        
                   2.820e-05        -25.0000        1                 
 4993                0.3500           0.3500         6.256e-06        
                   1.713e-05        -25.0000        1                 
 4994                0.3500           0.3500         5.300e-06        
                   1.617e-05        -25.0000        1                 
 4995                0.3500           0.3500         9.561e-06        
                   2.496e-05        -25.0000        1                 
 4996                0.3500           0.3500         1.071e-05        
                   2.903e-05        -25.0000        1                 
 4997                0.3500           0.3500         8.873e-06        
                   2.351e-05        -25.0000        1                 
 4998                0.3500           0.3500         1.503e-05        
                   4.163e-05        -25.0000        1                 
 4999                0.3500           0.3499         3.891e-06        
                   1.318e-05        -25.0000        1                 
 5000                0.3500           0.3500         1.313e-05        
                   3.470e-05        -25.0000        1                 
