$DATA1 SOURCE='HSPICE' VERSION='F-2011.09 64-BIT'
.TITLE '* include model and subckts'
 index            write1           read1            delay_write1      
                  delay_read1      temper           alter#            
 1                   0.3500           0.3498         2.647e-09        
                   7.660e-09         25.0000        1                 
 2                   0.3499           0.3498         1.647e-09        
                   5.899e-09         25.0000        1                 
 3                   0.3500           0.3497         5.359e-09        
                   1.054e-08         25.0000        1                 
 4                   0.3500           0.3499         7.186e-09        
                   2.028e-08         25.0000        1                 
 5                   0.3499           0.3497         1.316e-09        
                   4.335e-09         25.0000        1                 
 6                   0.3500           0.3498         3.511e-09        
                   1.143e-08         25.0000        1                 
 7                   0.3499           0.3497         1.467e-09        
                   5.202e-09         25.0000        1                 
 8                   0.3499           0.3500         3.257e-09        
                   2.077e-08         25.0000        1                 
 9                   0.3500           0.3499         3.177e-09        
                   1.648e-08         25.0000        1                 
 10                  0.3500           0.3498         4.256e-09        
                   1.024e-08         25.0000        1                 
 11                  0.3498           0.3499         1.750e-09        
                   1.065e-08         25.0000        1                 
 12                  0.3500           0.3495         2.873e-09        
                   6.362e-09         25.0000        1                 
 13                  0.3499           0.3499         2.341e-09        
                   8.497e-09         25.0000        1                 
 14                  0.3499           0.3495         1.440e-09        
                   4.155e-09         25.0000        1                 
 15                  0.3499           0.3499         2.331e-09        
                   1.312e-08         25.0000        1                 
 16                  0.3500           0.3498         2.888e-09        
                   7.858e-09         25.0000        1                 
 17                  0.3500           0.3499         3.013e-09        
                   1.045e-08         25.0000        1                 
 18                  0.3499           0.3498         1.795e-09        
                   6.641e-09         25.0000        1                 
 19                  0.3500           0.3498         2.293e-09        
                   7.933e-09         25.0000        1                 
 20                  0.3500           0.3499         2.806e-09        
                   1.114e-08         25.0000        1                 
 21                  0.3499           0.3499         1.882e-09        
                   8.324e-09         25.0000        1                 
 22                  0.3500           0.3499         2.722e-09        
                   9.490e-09         25.0000        1                 
 23                  0.3500           0.3498         5.877e-09        
                   1.363e-08         25.0000        1                 
 24                  0.3499           0.3498         1.729e-09        
                   7.336e-09         25.0000        1                 
 25                  0.3500           0.3497         2.720e-09        
                   6.912e-09         25.0000        1                 
 26                  0.3499           0.3499         2.264e-09        
                   9.345e-09         25.0000        1                 
 27                  0.3500           0.3498         4.606e-09        
                   1.041e-08         25.0000        1                 
 28                  0.3497           0.3498         1.068e-09        
                   5.179e-09         25.0000        1                 
 29                  0.3500           0.3497         2.393e-09        
                   6.584e-09         25.0000        1                 
 30                  0.3498           0.3496         1.007e-09        
                   3.531e-09         25.0000        1                 
 31                  0.3499           0.3498         1.777e-09        
                   6.028e-09         25.0000        1                 
 32                  0.3499           0.3499         2.896e-09        
                   1.321e-08         25.0000        1                 
 33                  0.3499           0.3499         2.272e-09        
                   9.911e-09         25.0000        1                 
 34                  0.3500           0.3499         5.984e-09        
                   1.766e-08         25.0000        1                 
 35                  0.3499           0.3497         1.715e-09        
                   5.855e-09         25.0000        1                 
 36                  0.3499           0.3499         1.688e-09        
                   7.872e-09         25.0000        1                 
 37                  0.3500           0.3498         2.466e-09        
                   8.575e-09         25.0000        1                 
 38                  0.3498           0.3500         2.044e-09        
                   1.557e-08         25.0000        1                 
 39                  0.3499           0.3499         2.039e-09        
                   8.624e-09         25.0000        1                 
 40                  0.3500           0.3498         5.279e-09        
                   1.399e-08         25.0000        1                 
 41                  0.3498           0.3500         2.926e-09        
                   2.531e-08         25.0000        1                 
 42                  0.3500           0.3499         2.899e-09        
                   1.098e-08         25.0000        1                 
 43                  0.3499           0.3499         2.166e-09        
                   8.139e-09         25.0000        1                 
 44                  0.3498           0.3498         1.324e-09        
                   6.357e-09         25.0000        1                 
 45                  0.3500           0.3499         3.207e-09        
                   1.181e-08         25.0000        1                 
 46                  0.3500           0.3497         2.385e-09        
                   6.923e-09         25.0000        1                 
 47                  0.3500           0.3499         2.765e-09        
                   9.508e-09         25.0000        1                 
 48                  0.3500           0.3496         2.151e-09        
                   5.845e-09         25.0000        1                 
 49                  0.3499           0.3499         2.431e-09        
                   1.304e-08         25.0000        1                 
 50                  0.3499           0.3498         1.808e-09        
                   6.748e-09         25.0000        1                 
