$DATA1 SOURCE='HSPICE' VERSION='F-2011.09 64-BIT'
.TITLE '* include model and subckts'
 index            delay_write1     delay_read1      temper            
                  alter#            
 1                   failed         3.745e-09         25.0000         
                  1                 
 2                   failed         2.541e-09         25.0000         
                  1                 
 3                   failed         6.678e-09         25.0000         
                  1                 
 4                   failed         9.580e-09         25.0000         
                  1                 
 5                   failed         1.988e-09         25.0000         
                  1                 
 6                   failed         5.178e-09         25.0000         
                  1                 
 7                   failed         2.310e-09         25.0000         
                  1                 
 8                   failed         7.388e-09         25.0000         
                  1                 
 9                   failed         6.135e-09         25.0000         
                  1                 
 10                  failed         5.560e-09         25.0000         
                  1                 
 11                  failed         3.916e-09         25.0000         
                  1                 
 12                  failed         3.941e-09         25.0000         
                  1                 
 13                  failed         3.593e-09         25.0000         
                  1                 
 14                  failed         2.136e-09         25.0000         
                  1                 
 15                  failed         4.892e-09         25.0000         
                  1                 
 16                  failed         3.880e-09         25.0000         
                  1                 
 17                  failed         4.567e-09         25.0000         
                  1                 
 18                  failed         2.888e-09         25.0000         
                  1                 
 19                  failed         3.587e-09         25.0000         
                  1                 
 20                  failed         4.463e-09         25.0000         
                  1                 
 21                  failed         3.344e-09         25.0000         
                  1                 
 22                  failed         4.145e-09         25.0000         
                  1                 
 23                  failed         7.352e-09         25.0000         
                  1                 
 24                  failed         3.024e-09         25.0000         
                  1                 
 25                  failed         3.731e-09         25.0000         
                  1                 
 26                  failed         3.728e-09         25.0000         
                  1                 
 27                  failed         5.933e-09         25.0000         
                  1                 
 28                  failed         2.052e-09         25.0000         
                  1                 
 29                  failed         3.348e-09         25.0000         
                  1                 
 30                  failed         1.600e-09         25.0000         
                  1                 
 31                  failed         2.687e-09         25.0000         
                  1                 
 32                  failed         5.021e-09         25.0000         
                  1                 
 33                  failed         4.008e-09         25.0000         
                  1                 
 34                  failed         8.141e-09         25.0000         
                  1                 
 35                  failed         2.637e-09         25.0000         
                  1                 
 36                  failed         3.059e-09         25.0000         
                  1                 
 37                  failed         3.764e-09         25.0000         
                  1                 
 38                  failed         5.345e-09         25.0000         
                  1                 
 39                  failed         3.371e-09         25.0000         
                  1                 
 40                  failed         7.019e-09         25.0000         
                  1                 
 41                  failed         7.995e-09         25.0000         
                  1                 
 42                  failed         4.598e-09         25.0000         
                  1                 
 43                  failed         3.398e-09         25.0000         
                  1                 
 44                  failed         2.649e-09         25.0000         
                  1                 
 45                  failed         5.148e-09         25.0000         
                  1                 
 46                  failed         3.419e-09         25.0000         
                  1                 
 47                  failed         4.169e-09         25.0000         
                  1                 
 48                  failed         3.129e-09         25.0000         
                  1                 
 49                  failed         5.092e-09         25.0000         
                  1                 
 50                  failed         2.834e-09         25.0000         
                  1                 
 51                  failed         3.042e-09         25.0000         
                  1                 
 52                  failed         4.171e-09         25.0000         
                  1                 
 53                  failed         5.784e-09         25.0000         
                  1                 
 54                  failed         4.265e-09         25.0000         
                  1                 
 55                  failed         2.614e-09         25.0000         
                  1                 
 56                  failed         4.452e-09         25.0000         
                  1                 
 57                  failed         2.696e-09         25.0000         
                  1                 
 58                  failed         4.178e-09         25.0000         
                  1                 
 59                  failed         8.303e-09         25.0000         
                  1                 
 60                  failed         3.200e-09         25.0000         
                  1                 
 61                  failed         5.492e-09         25.0000         
                  1                 
 62                  failed         3.197e-09         25.0000         
                  1                 
 63                  failed         4.445e-09         25.0000         
                  1                 
 64                  failed         2.017e-09         25.0000         
                  1                 
 65                  failed         5.090e-09         25.0000         
                  1                 
 66                  failed         4.345e-09         25.0000         
                  1                 
 67                  failed         2.406e-09         25.0000         
                  1                 
 68                  failed         6.331e-09         25.0000         
                  1                 
 69                  failed         3.286e-09         25.0000         
                  1                 
 70                  failed         5.846e-09         25.0000         
                  1                 
 71                  failed         7.334e-09         25.0000         
                  1                 
 72                  failed         5.784e-09         25.0000         
                  1                 
 73                  failed         5.704e-09         25.0000         
                  1                 
 74                  failed         6.952e-09         25.0000         
                  1                 
 75                  failed         3.431e-09         25.0000         
                  1                 
 76                  failed         6.892e-09         25.0000         
                  1                 
 77                  failed         6.323e-09         25.0000         
                  1                 
 78                  failed         4.107e-09         25.0000         
                  1                 
 79                  failed         2.637e-09         25.0000         
                  1                 
 80                  failed         3.377e-09         25.0000         
                  1                 
 81                  failed         5.458e-09         25.0000         
                  1                 
 82                  failed         5.119e-09         25.0000         
                  1                 
 83                  failed         7.396e-09         25.0000         
                  1                 
 84                  failed         4.734e-09         25.0000         
                  1                 
 85                  failed         5.906e-09         25.0000         
                  1                 
 86                  failed         6.689e-09         25.0000         
                  1                 
 87                  failed         2.671e-09         25.0000         
                  1                 
 88                  failed         6.249e-09         25.0000         
                  1                 
 89                  failed         6.591e-09         25.0000         
                  1                 
 90                  failed         3.157e-09         25.0000         
                  1                 
 91                  failed         3.564e-09         25.0000         
                  1                 
 92                  failed         3.735e-09         25.0000         
                  1                 
 93                  failed         7.900e-09         25.0000         
                  1                 
 94                  failed         3.315e-09         25.0000         
                  1                 
 95                  failed         3.038e-09         25.0000         
                  1                 
 96                  failed         2.887e-09         25.0000         
                  1                 
 97                  failed         5.536e-09         25.0000         
                  1                 
 98                  failed         3.695e-09         25.0000         
                  1                 
 99                  failed         6.750e-09         25.0000         
                  1                 
 100                 failed         1.275e-08         25.0000         
                  1                 
