$DATA1 SOURCE='HSPICE' VERSION='F-2011.09 64-BIT'
.TITLE '* include model and subckts'
 index            write0           read0            delay_write0      
                  delay_read0      temper           alter#            
 1                 4.992e-05        6.908e-05        1.784e-09        
                   9.993e-09         25.0000        1                 
 2                 3.865e-05        1.394e-04        1.126e-09        
                   5.614e-09         25.0000        1                 
 3                 1.203e-04        3.489e-05        3.980e-09        
                   1.954e-08         25.0000        1                 
 4                 3.790e-05        8.915e-02        4.287e-09        
                   3.660e-08         25.0000        1                 
 5                 4.415e-05        1.234e-04        9.584e-10        
                   4.411e-09         25.0000        1                 
 6                 3.711e-05        7.359e-05        2.256e-09        
                   1.393e-08         25.0000        1                 
 7                 2.905e-05        1.173e-04        1.041e-09        
                   5.038e-09         25.0000        1                 
 8                 1.316e-05        2.399e-04        1.913e-09        
                   1.239e-08         25.0000        1                 
 9                 1.764e-05        1.818e-04        1.932e-09        
                   1.195e-08         25.0000        1                 
 10                7.002e-05        5.035e-05        2.859e-09        
                   1.642e-08         25.0000        1                 
 11                1.200e-05        3.368e-04        1.140e-09        
                   6.758e-09         25.0000        1                 
 12                1.208e-04        4.197e-05          failed         
                     failed          25.0000        1                 
 13                3.467e-05        1.152e-04        1.522e-09        
                   8.427e-09         25.0000        1                 
 14                5.290e-05        8.081e-05        1.068e-09        
                   4.923e-09         25.0000        1                 
 15                1.356e-05        2.125e-04          failed         
                     failed          25.0000        1                 
 16                8.403e-05        7.765e-05        1.908e-09        
                   1.077e-08         25.0000        1                 
 17                3.564e-05        9.599e-05        1.953e-09        
                   1.125e-08         25.0000        1                 
 18                2.437e-05        1.150e-04        1.246e-09        
                   6.243e-09         25.0000        1                 
 19                2.561e-05        8.356e-05        1.571e-09        
                   8.307e-09         25.0000        1                 
 20                3.355e-05        1.398e-04        1.745e-09        
                   1.028e-08         25.0000        1                 
 21                1.930e-05        1.571e-04        1.231e-09        
                   6.622e-09         25.0000        1                 
 22                3.551e-05        1.008e-04        1.768e-09        
                   1.005e-08         25.0000        1                 
 23                7.989e-05        5.320e-05        3.879e-09        
                   2.264e-08         25.0000        1                 
 24                1.937e-05        1.517e-04        1.181e-09        
                   6.001e-09         25.0000        1                 
 25                8.243e-05        5.670e-05        1.903e-09        
                   9.904e-09         25.0000        1                 
 26                2.853e-05        1.568e-04        1.453e-09        
                   8.060e-09         25.0000        1                 
 27                8.156e-05        4.481e-05        3.198e-09        
                   1.761e-08         25.0000        1                 
 28                1.684e-05        2.835e-04        7.546e-10        
                   3.874e-09         25.0000        1                 
 29                6.644e-05        6.783e-05        1.643e-09        
                   8.612e-09         25.0000        1                 
 30                3.299e-05        1.502e-04        7.425e-10        
                   3.293e-09         25.0000        1                 
 31                3.618e-05        1.079e-04        1.220e-09        
                   6.179e-09         25.0000        1                 
 32                2.500e-05        1.684e-04        1.748e-09        
                   1.070e-08         25.0000        1                 
 33                1.948e-05        1.373e-04        1.452e-09        
                   8.226e-09         25.0000        1                 
 34                3.652e-05        7.373e-05        3.621e-09        
                   2.448e-08         25.0000        1                 
 35                2.987e-05        9.907e-05        1.191e-09        
                   5.957e-09         25.0000        1                 
 36                2.117e-05        2.116e-04        1.093e-09        
                   5.849e-09         25.0000        1                 
 37                3.367e-05        9.681e-05        1.621e-09        
                   8.982e-09         25.0000        1                 
 38                8.430e-06        4.161e-04        1.277e-09        
                   7.408e-09         25.0000        1                 
 39                3.008e-05        1.818e-04        1.319e-09        
                   7.151e-09         25.0000        1                 
 40                4.193e-05        5.418e-05        3.338e-09        
                   2.140e-08         25.0000        1                 
 41                7.989e-06        4.294e-04        1.747e-09        
                   1.210e-08         25.0000        1                 
 42                3.047e-05        1.130e-04        1.834e-09        
                   1.077e-08         25.0000        1                 
 43                3.332e-05        1.311e-04        1.419e-09        
                   7.680e-09         25.0000        1                 
 44                1.234e-05        1.902e-04        9.064e-10        
                   4.535e-09         25.0000        1                 
 45                2.446e-05        8.338e-05        2.023e-09        
                   1.232e-08         25.0000        1                 
 46                4.984e-05        6.875e-05        1.632e-09        
                   8.673e-09         25.0000        1                 
 47                3.601e-05        9.588e-05        1.800e-09        
                   1.020e-08         25.0000        1                 
 48                4.968e-05        5.675e-05        1.545e-09        
                   7.655e-09         25.0000        1                 
 49                1.308e-05        1.688e-04        1.517e-09        
                   9.012e-09         25.0000        1                 
