$DATA1 SOURCE='HSPICE' VERSION='F-2011.09 64-BIT'
.TITLE '* include model and subckts'
 index            write1           read1            temper            
                  alter#            
 1                   0.3500           0.3498          25.0000         
                  1                 
 2                   0.3499           0.3498          25.0000         
                  1                 
 3                 2.105e-04        3.466e-05         25.0000         
                  1                 
 4                 8.470e-05        6.080e-05         25.0000         
                  1                 
 5                   0.3499           0.3497          25.0000         
                  1                 
 6                 7.925e-05        7.306e-05         25.0000         
                  1                 
 7                   0.3499           0.3497          25.0000         
                  1                 
 8                   0.3499           0.3476          25.0000         
                  1                 
 9                   0.3500           0.3499          25.0000         
                  1                 
 10                1.486e-04        5.001e-05         25.0000         
                  1                 
 11                  0.3499           0.3499          25.0000         
                  1                 
 12                1.830e-04        4.198e-05         25.0000         
                  1                 
 13                  0.3500           0.3499          25.0000         
                  1                 
 14                  0.3500           0.3495          25.0000         
                  1                 
 15                  0.3499           0.3499          25.0000         
                  1                 
 16                  0.3500           0.3498          25.0000         
                  1                 
 17                  0.3500           0.3499          25.0000         
                  1                 
 18                  0.3500           0.3498          25.0000         
                  1                 
 19                  0.3500           0.3498          25.0000         
                  1                 
 20                  0.3500           0.3499          25.0000         
                  1                 
 21                  0.3499           0.3499          25.0000         
                  1                 
 22                  0.3500           0.3499          25.0000         
                  1                 
 23                1.729e-04        5.283e-05         25.0000         
                  1                 
 24                  0.3499           0.3498          25.0000         
                  1                 
 25                  0.3500           0.3497          25.0000         
                  1                 
 26                  0.3499           0.3499          25.0000         
                  1                 
 27                1.642e-04        4.451e-05         25.0000         
                  1                 
 28                  0.3498           0.3498          25.0000         
                  1                 
 29                  0.3500           0.3497          25.0000         
                  1                 
 30                  0.3499           0.3496          25.0000         
                  1                 
 31                  0.3499           0.3498          25.0000         
                  1                 
 32                  0.3499           0.3499          25.0000         
                  1                 
 33                  0.3499           0.3499          25.0000         
                  1                 
 34                1.063e-04        7.233e-05         25.0000         
                  1                 
 35                  0.3500           0.3497          25.0000         
                  1                 
 36                  0.3499           0.3499          25.0000         
                  1                 
 37                  0.3500           0.3498          25.0000         
                  1                 
 38                  0.3498           0.3500          25.0000         
                  1                 
 39                  0.3499           0.3499          25.0000         
                  1                 
 40                1.163e-04        5.350e-05         25.0000         
                  1                 
 41                  0.3499           0.3448          25.0000         
                  1                 
 42                  0.3500           0.3499          25.0000         
                  1                 
 43                  0.3499           0.3499          25.0000         
                  1                 
 44                  0.3499           0.3498          25.0000         
                  1                 
 45                  0.3500           0.3499          25.0000         
                  1                 
 46                  0.3500           0.3497          25.0000         
                  1                 
 47                  0.3500           0.3499          25.0000         
                  1                 
 48                  0.3500           0.3496          25.0000         
                  1                 
 49                  0.3499           0.3499          25.0000         
                  1                 
 50                  0.3499           0.3498          25.0000         
                  1                 
