$DATA1 SOURCE='HSPICE' VERSION='F-2011.09 64-BIT'
.TITLE '* include model and subckts'
 index            write1           t_rwlend         v_read1           
                  delay_write1     delay_read1      temper            
                  alter#            
 1                   0.3500         7.427e-08          0.3497         
                   2.650e-09        7.928e-09         25.0000         
                  1                 
 2                   0.3499         7.306e-08          0.3498         
                   1.658e-09        6.037e-09         25.0000         
                  1                 
 3                   0.3500         7.675e-08          0.3497         
                   5.323e-09        1.199e-08         25.0000         
                  1                 
 4                   0.3499         7.944e-08          0.3327         
                   7.167e-09        2.138e-08         25.0000         
                  1                 
 5                   0.3499         7.254e-08          0.3497         
                   1.323e-09        4.409e-09         25.0000         
                  1                 
 6                   0.3500         7.549e-08          0.3498         
                   3.518e-09        1.159e-08         25.0000         
                  1                 
 7                   0.3499         7.280e-08          0.3497         
                   1.478e-09        5.252e-09         25.0000         
                  1                 
 8                   0.3499         7.604e-08        4.284e-04        
                   3.308e-09        2.100e-08         25.0000         
                  1                 
 9                   0.3499         7.558e-08          0.3500         
                   3.208e-09        1.665e-08         25.0000         
                  1                 
 10                  0.3500         7.599e-08          0.3498         
                   4.242e-09        1.096e-08         25.0000         
                  1                 
 11                  0.3498         7.366e-08          0.3499         
                   1.772e-09        1.082e-08         25.0000         
                  1                 
 12                  0.3500         7.428e-08          0.3495         
                   2.880e-09        6.853e-09         25.0000         
                  1                 
 13                  0.3499         7.405e-08          0.3498         
                   2.341e-09        8.664e-09         25.0000         
                  1                 
 14                  0.3499         7.266e-08          0.3495         
                   1.445e-09        4.196e-09         25.0000         
                  1                 
 15                  0.3499         7.445e-08          0.3499         
                   2.358e-09        1.299e-08         25.0000         
                  1                 
 16                  0.3500         7.450e-08          0.3498         
                   2.875e-09        8.323e-09         25.0000         
                  1                 
 17                  0.3500         7.492e-08          0.3499         
                   3.015e-09        1.071e-08         25.0000         
                  1                 
 18                  0.3499         7.331e-08          0.3498         
                   1.799e-09        6.720e-09         25.0000         
                  1                 
 19                  0.3500         7.397e-08          0.3498         
                   2.294e-09        8.019e-09         25.0000         
                  1                 
 20                  0.3499         7.475e-08          0.3499         
                   2.809e-09        1.125e-08         25.0000         
                  1                 
 21                  0.3499         7.358e-08          0.3499         
                   1.889e-09        8.385e-09         25.0000         
                  1                 
 22                  0.3500         7.455e-08          0.3499         
                   2.725e-09        9.742e-09         25.0000         
                  1                 
 23                  0.3500         7.769e-08          0.3499         
                   5.874e-09        1.493e-08         25.0000         
                  1                 
 24                  0.3499         7.331e-08          0.3498         
                   1.748e-09        7.434e-09         25.0000         
                  1                 
 25                  0.3500         7.423e-08          0.3497         
                   2.728e-09        7.339e-09         25.0000         
                  1                 
 26                  0.3499         7.407e-08          0.3499         
                   2.280e-09        9.501e-09         25.0000         
                  1                 
 27                  0.3500         7.627e-08          0.3497         
                   4.577e-09        1.123e-08         25.0000         
                  1                 
 28                  0.3497         7.236e-08          0.3498         
                   1.082e-09        5.157e-09         25.0000         
                  1                 
 29                  0.3500         7.389e-08          0.3497         
                   2.395e-09        6.821e-09         25.0000         
                  1                 
 30                  0.3498         7.210e-08          0.3496         
                   1.011e-09        3.575e-09         25.0000         
                  1                 
 31                  0.3499         7.322e-08          0.3498         
                   1.771e-09        6.149e-09         25.0000         
                  1                 
 32                  0.3499         7.504e-08          0.3499         
                   2.934e-09        1.336e-08         25.0000         
                  1                 
 33                  0.3499         7.412e-08          0.3499         
                   2.286e-09        1.005e-08         25.0000         
                  1                 
 34                  0.3500         7.830e-08          0.3500         
                   5.984e-09        1.843e-08         25.0000         
                  1                 
 35                  0.3499         7.314e-08          0.3497         
                   1.713e-09        5.916e-09         25.0000         
                  1                 
 36                  0.3498         7.333e-08          0.3499         
                   1.706e-09        7.971e-09         25.0000         
                  1                 
 37                  0.3500         7.419e-08          0.3498         
                   2.461e-09        8.693e-09         25.0000         
                  1                 
 38                  0.3498         7.439e-08          0.3500         
                   2.094e-09        1.556e-08         25.0000         
                  1                 
 39                  0.3499         7.374e-08          0.3499         
                   2.058e-09        8.781e-09         25.0000         
                  1                 
 40                  0.3500         7.726e-08          0.3499         
                   5.255e-09        1.466e-08         25.0000         
                  1                 
 41                  0.3498         7.594e-08        4.105e-04        
                   2.953e-09          failed          25.0000         
                  1                 
 42                  0.3500         7.487e-08          0.3499         
                   2.900e-09        1.120e-08         25.0000         
                  1                 
 43                  0.3499         7.382e-08          0.3499         
                   2.166e-09        8.308e-09         25.0000         
                  1                 
 44                  0.3498         7.279e-08          0.3498         
                   1.335e-09        6.425e-09         25.0000         
                  1                 
 45                  0.3500         7.524e-08          0.3499         
                   3.199e-09        1.193e-08         25.0000         
                  1                 
 46                  0.3500         7.395e-08          0.3497         
                   2.396e-09        7.111e-09         25.0000         
                  1                 
 47                  0.3500         7.458e-08          0.3498         
                   2.755e-09        9.684e-09         25.0000         
                  1                 
 48                  0.3500         7.358e-08          0.3496         
                   2.151e-09        5.939e-09         25.0000         
                  1                 
 49                  0.3499         7.460e-08          0.3499         
                   2.473e-09        1.305e-08         25.0000         
                  1                 
 50                  0.3499         7.332e-08          0.3498         
                   1.817e-09        6.884e-09         25.0000         
                  1                 
 51                  0.3500         7.352e-08          0.3496         
                   2.121e-09        5.753e-09         25.0000         
                  1                 
 52                  0.3499         7.448e-08          0.3499         
                   2.611e-09        1.047e-08         25.0000         
                  1                 
 53                  0.3500         7.570e-08          0.3499         
                   3.529e-09        1.336e-08         25.0000         
                  1                 
 54                  0.3500         7.474e-08          0.3498         
                   2.973e-09        9.181e-09         25.0000         
                  1                 
 55                  0.3499         7.298e-08          0.3498         
                   1.533e-09        6.425e-09         25.0000         
                  1                 
 56                  0.3500         7.498e-08          0.3499         
                   3.157e-09        1.039e-08         25.0000         
                  1                 
 57                  0.3497         7.289e-08          0.3499         
                   1.385e-09        7.474e-09         25.0000         
                  1                 
 58                  0.3500         7.437e-08          0.3499         
                   2.536e-09        1.002e-08         25.0000         
                  1                 
 59                  0.3499         7.663e-08        2.167e-04        
                   3.779e-09        2.407e-08         25.0000         
                  1                 
 60                  0.3499         7.349e-08          0.3499         
                   1.855e-09        8.117e-09         25.0000         
                  1                 
 61                  0.3500         7.582e-08          0.3498         
                   3.844e-09        1.207e-08         25.0000         
                  1                 
 62                  0.3499         7.345e-08          0.3499         
                   1.809e-09        8.655e-09         25.0000         
                  1                 
 63                  0.3499         7.429e-08          0.3499         
                   2.288e-09        1.182e-08         25.0000         
                  1                 
 64                  0.3498         7.249e-08          0.3498         
                   1.235e-09        5.065e-09         25.0000         
                  1                 
 65                  0.3499         7.503e-08          0.3499         
                   2.903e-09        1.271e-08         25.0000         
                  1                 
 66                  0.3499         7.410e-08          0.3499         
                   2.152e-09        1.180e-08         25.0000         
                  1                 
 67                  0.3499         7.300e-08          0.3498         
                   1.625e-09        5.810e-09         25.0000         
                  1                 
 68                  0.3499         7.570e-08          0.3500         
                   3.282e-09        1.688e-08         25.0000         
                  1                 
 69                  0.3499         7.374e-08          0.3498         
                   2.104e-09        7.763e-09         25.0000         
                  1                 
 70                  0.3500         7.624e-08          0.3498         
                   4.307e-09        1.230e-08         25.0000         
                  1                 
 71                  0.3500         7.665e-08          0.3500         
                   4.083e-09        1.894e-08         25.0000         
                  1                 
 72                  0.3500         7.620e-08          0.3498         
                   4.265e-09        1.266e-08         25.0000         
                  1                 
 73                  0.3499         7.535e-08          0.3500         
                   3.027e-09        1.597e-08         25.0000         
                  1                 
 74                  0.3500         7.708e-08          0.3499         
                   4.873e-09        1.560e-08         25.0000         
                  1                 
 75                  0.3499         7.378e-08          0.3499         
                   2.109e-09        8.483e-09         25.0000         
                  1                 
 76                  0.3498         7.494e-08       -9.384e-04        
                   2.233e-09        1.969e-08         25.0000         
                  1                 
 77                  0.3500         7.630e-08          0.3499         
                   4.035e-09        1.517e-08         25.0000         
                  1                 
 78                  0.3500         7.453e-08          0.3496         
                   3.041e-09        7.445e-09         25.0000         
                  1                 
 79                  0.3499         7.301e-08          0.3498         
                   1.541e-09        6.532e-09         25.0000         
                  1                 
 80                  0.3499         7.382e-08          0.3498         
                   2.180e-09        7.771e-09         25.0000         
                  1                 
 81                  0.3499         7.560e-08          0.3499         
                   3.393e-09        1.398e-08         25.0000         
                  1                 
 82                  0.3500         7.562e-08          0.3498         
                   3.724e-09        1.144e-08         25.0000         
                  1                 
 83                  0.3500         7.665e-08          0.3500         
                   4.065e-09        1.931e-08         25.0000         
                  1                 
 84                  0.3500         7.477e-08          0.3499         
                   2.767e-09        1.142e-08         25.0000         
                  1                 
 85                  0.3500         7.597e-08          0.3499         
                   3.762e-09        1.456e-08         25.0000         
                  1                 
 86                  0.3499         7.586e-08          0.3500         
                   3.373e-09        1.783e-08         25.0000         
                  1                 
 87                  0.3499         7.318e-08          0.3497         
                   1.738e-09        6.054e-09         25.0000         
                  1                 
 88                  0.3499         7.557e-08          0.3500         
                   3.176e-09        1.626e-08         25.0000         
                  1                 
 89                  0.3500         7.646e-08          0.3500         
                   4.135e-09        1.649e-08         25.0000         
                  1                 
 90                  0.3498         7.318e-08          0.3499         
                   1.555e-09        8.375e-09         25.0000         
                  1                 
 91                  0.3500         7.403e-08          0.3498         
                   2.362e-09        8.041e-09         25.0000         
                  1                 
 92                  0.3500         7.423e-08          0.3497         
                   2.712e-09        7.167e-09         25.0000         
                  1                 
 93                  0.3500         7.811e-08          0.3499         
                   6.004e-09        1.627e-08         25.0000         
                  1                 
 94                  0.3500         7.387e-08          0.3498         
                   2.312e-09        7.144e-09         25.0000         
                  1                 
 95                  0.3499         7.364e-08          0.3497         
                   2.167e-09        6.547e-09         25.0000         
                  1                 
 96                  0.3499         7.349e-08          0.3497         
                   2.031e-09        6.313e-09         25.0000         
                  1                 
 97                  0.3499         7.460e-08          0.3500         
                   2.312e-09        1.507e-08         25.0000         
                  1                 
 98                  0.3500         7.410e-08          0.3498         
                   2.380e-09        8.537e-09         25.0000         
                  1                 
 99                  0.3500         7.707e-08          0.3498         
                   5.273e-09        1.321e-08         25.0000         
                  1                 
 100                 0.3500         7.812e-08        2.008e-04        
                   4.455e-09          failed          25.0000         
                  1                 
