$DATA1 SOURCE='HSPICE' VERSION='F-2011.09 64-BIT'
.TITLE '* include model and subckts'
 index            write0           read0            temper            
                  alter#            
 1                 7.052e-05        6.957e-05         25.0000         
                  1                 
 2                 5.332e-05        1.396e-04         25.0000         
                  1                 
 3                   0.3500           0.3497          25.0000         
                  1                 
 4                   0.3500           0.3499          25.0000         
                  1                 
 5                 5.890e-05        1.235e-04         25.0000         
                  1                 
 6                   0.3500           0.3498          25.0000         
                  1                 
 7                 4.132e-05        1.173e-04         25.0000         
                  1                 
 8                 2.334e-05        2.427e-04         25.0000         
                  1                 
 9                 2.969e-05        1.831e-04         25.0000         
                  1                 
 10                  0.3500           0.3498          25.0000         
                  1                 
 11                1.911e-05        3.418e-04         25.0000         
                  1                 
 12                  0.3500           0.3495          25.0000         
                  1                 
 13                5.051e-05        1.159e-04         25.0000         
                  1                 
 14                7.045e-05        8.068e-05         25.0000         
                  1                 
 15                2.192e-05        2.126e-04         25.0000         
                  1                 
 16                1.127e-04        7.919e-05         25.0000         
                  1                 
 17                5.308e-05        9.734e-05         25.0000         
                  1                 
 18                3.628e-05        1.152e-04         25.0000         
                  1                 
 19                3.831e-05        8.395e-05         25.0000         
                  1                 
 20                4.972e-05        1.403e-04         25.0000         
                  1                 
 21                2.957e-05        1.579e-04         25.0000         
                  1                 
 22                5.217e-05        1.016e-04         25.0000         
                  1                 
 23                  0.3500           0.3498          25.0000         
                  1                 
 24                2.867e-05        1.520e-04         25.0000         
                  1                 
 25                1.097e-04        5.713e-05         25.0000         
                  1                 
 26                4.237e-05        1.579e-04         25.0000         
                  1                 
 27                  0.3500           0.3498          25.0000         
                  1                 
 28                2.172e-05        2.835e-04         25.0000         
                  1                 
 29                9.056e-05        6.813e-05         25.0000         
                  1                 
 30                4.328e-05        1.504e-04         25.0000         
                  1                 
 31                5.081e-05        1.081e-04         25.0000         
                  1                 
 32                3.856e-05        1.691e-04         25.0000         
                  1                 
 33                3.050e-05        1.380e-04         25.0000         
                  1                 
 34                  0.3500           0.3499          25.0000         
                  1                 
 35                4.330e-05        9.913e-05         25.0000         
                  1                 
 36                3.138e-05        2.132e-04         25.0000         
                  1                 
 37                4.925e-05        9.713e-05         25.0000         
                  1                 
 38                1.423e-05        4.196e-04         25.0000         
                  1                 
 39                4.421e-05        1.833e-04         25.0000         
                  1                 
 40                  0.3500           0.3498          25.0000         
                  1                 
 41                1.472e-05        4.342e-04         25.0000         
                  1                 
 42                4.570e-05        1.136e-04         25.0000         
                  1                 
 43                4.822e-05        1.318e-04         25.0000         
                  1                 
 44                1.826e-05        1.904e-04         25.0000         
                  1                 
 45                3.810e-05        8.457e-05         25.0000         
                  1                 
 46                6.982e-05        6.893e-05         25.0000         
                  1                 
 47                5.267e-05        9.664e-05         25.0000         
                  1                 
 48                6.928e-05        5.681e-05         25.0000         
                  1                 
 49                2.128e-05        1.690e-04         25.0000         
                  1                 
 50                4.978e-05        1.470e-04         25.0000         
                  1                 
