$DATA1 SOURCE='HSPICE' VERSION='F-2011.09 64-BIT'
.TITLE '* include model and subckts'
 index            write0           read0            delay_write0      
                  delay_read0      temper           alter#            
 1                 5.049e-05        6.908e-05        3.946e-09        
                   8.844e-09         25.0000        1                 
 2                 4.066e-05        1.400e-04        1.942e-09        
                   5.110e-09         25.0000        1                 
 3                   0.3500           0.3497           failed         
                     failed          25.0000        1                 
 4                   0.3500           0.3499           failed         
                     failed          25.0000        1                 
 5                 4.605e-05        1.243e-04        1.756e-09        
                   3.751e-09         25.0000        1                 
 6                 3.287e-05        7.365e-05        4.678e-09        
                   1.412e-08         25.0000        1                 
 7                 3.106e-05        1.177e-04        1.889e-09        
                   4.401e-09         25.0000        1                 
 8                 1.405e-05        2.400e-04        2.397e-09        
                   1.353e-08         25.0000        1                 
 9                 1.841e-05        1.820e-04        2.730e-09        
                   1.255e-08         25.0000        1                 
 10                  0.3500           0.3498           failed         
                     failed          25.0000        1                 
 11                1.393e-05        3.400e-04        1.250e-09        
                   6.920e-09         25.0000        1                 
 12                  0.3500           0.3495         5.761e-09        
                     failed          25.0000        1                 
 13                3.571e-05        1.154e-04        2.754e-09        
                   7.878e-09         25.0000        1                 
 14                5.512e-05        8.098e-05        2.382e-09        
                   3.846e-09         25.0000        1                 
 15                1.502e-05        2.130e-04          failed         
                     failed          25.0000        1                 
 16                8.499e-05        7.776e-05        4.082e-09        
                   9.551e-09         25.0000        1                 
 17                3.614e-05        9.606e-05        3.677e-09        
                   1.050e-08         25.0000        1                 
 18                2.565e-05        1.153e-04        2.216e-09        
                   5.639e-09         25.0000        1                 
 19                2.613e-05        8.366e-05        3.077e-09        
                   7.513e-09         25.0000        1                 
 20                3.450e-05        1.398e-04        2.881e-09        
                   1.010e-08         25.0000        1                 
 21                2.085e-05        1.575e-04        1.907e-09        
                   6.465e-09         25.0000        1                 
 22                3.618e-05        1.007e-04        3.334e-09        
                   9.420e-09         25.0000        1                 
 23                  0.3500           0.3498           failed         
                     failed          25.0000        1                 
 24                2.063e-05        1.520e-04        1.837e-09        
                   5.637e-09         25.0000        1                 
 25                8.238e-05        5.667e-05        4.571e-09        
                   7.666e-09         25.0000        1                 
 26                2.979e-05        1.571e-04        2.290e-09        
                   7.842e-09         25.0000        1                 
 27                  0.3500           0.3498           failed         
                     failed          25.0000        1                 
 28                1.703e-05        2.912e-04        9.101e-10        
                   3.749e-09         25.0000        1                 
 29                6.715e-05        6.782e-05        3.749e-09        
                   7.064e-09         25.0000        1                 
 30                3.283e-05        1.530e-04        1.259e-09        
                   2.811e-09         25.0000        1                 
 31                3.821e-05        1.082e-04        2.277e-09        
                   5.476e-09         25.0000        1                 
 32                2.613e-05        1.686e-04        2.648e-09        
                   1.109e-08         25.0000        1                 
 33                2.070e-05        1.377e-04        2.364e-09        
                   8.081e-09         25.0000        1                 
 34                  0.3500           0.3499           failed         
                     failed          25.0000        1                 
 35                3.170e-05        9.931e-05        2.292e-09        
                   5.263e-09         25.0000        1                 
 36                2.380e-05        2.130e-04        1.547e-09        
                   5.736e-09         25.0000        1                 
 37                3.430e-05        9.684e-05        3.116e-09        
                   8.251e-09         25.0000        1                 
 38                1.021e-05        4.214e-04        1.273e-09        
                   7.639e-09         25.0000        1                 
 39                3.177e-05        1.824e-04        1.982e-09        
                   6.983e-09         25.0000        1                 
 40                  0.3500           0.3498           failed         
                     failed          25.0000        1                 
 41                9.488e-06        4.313e-04        1.695e-09        
                   1.295e-08         25.0000        1                 
 42                3.103e-05        1.128e-04        3.232e-09        
                   1.049e-08         25.0000        1                 
 43                3.444e-05        1.313e-04        2.429e-09        
                   7.215e-09         25.0000        1                 
 44                1.532e-05        1.914e-04        1.233e-09        
                   4.345e-09         25.0000        1                 
 45                2.471e-05        8.323e-05        3.976e-09        
                   1.202e-08         25.0000        1                 
 46                5.036e-05        6.872e-05        3.647e-09        
                   7.292e-09         25.0000        1                 
 47                3.648e-05        9.580e-05        3.436e-09        
                   9.540e-09         25.0000        1                 
 48                4.987e-05        5.676e-05        3.734e-09        
                   6.080e-09         25.0000        1                 
 49                1.407e-05        1.690e-04        2.187e-09        
                   9.267e-09         25.0000        1                 
