$DATA1 SOURCE='HSPICE' VERSION='F-2011.09 64-BIT'
.TITLE '* include model and subckts'
 index            write0           read0            delay_write0      
                  delay_read0      temper           alter#            
 1                 6.966e-05        6.917e-05        1.647e-09        
                  -2.825e-08         25.0000        1                 
 2                 5.284e-05        1.395e-04        1.035e-09        
                   6.379e-09         25.0000        1                 
 3                 2.054e-04        4.026e-05        3.565e-09        
                   2.013e-08         25.0000        1                 
 4                 1.535e-05          0.3497         3.978e-09        
                     failed          25.0000        1                 
 5                 5.886e-05        1.234e-04        8.586e-10        
                   4.788e-09         25.0000        1                 
 6                 5.454e-05        7.451e-05        2.090e-09        
                  -2.245e-08         25.0000        1                 
 7                 4.103e-05        1.173e-04        9.419e-10        
                   5.563e-09         25.0000        1                 
 8                 2.344e-05        2.410e-04        1.733e-09        
                   1.586e-08         25.0000        1                 
 9                 2.735e-05        1.819e-04        1.775e-09        
                   1.529e-08         25.0000        1                 
 10                1.161e-04        5.278e-05        2.661e-09        
                  -2.059e-08         25.0000        1                 
 11                1.833e-05        3.394e-04        1.016e-09        
                  -3.192e-08         25.0000        1                 
 12                1.552e-04        4.201e-05        2.200e-09        
                  -2.857e-08         25.0000        1                 
 13                4.923e-05        1.155e-04        1.416e-09        
                   1.011e-08         25.0000        1                 
 14                7.028e-05        8.069e-05        9.423e-10        
                   5.117e-09         25.0000        1                 
 15                2.083e-05        2.135e-04        1.315e-09        
                   1.038e-08         25.0000        1                 
 16                1.124e-04        7.789e-05        1.799e-09        
                  -2.746e-08         25.0000        1                 
 17                5.257e-05        9.617e-05        1.818e-09        
                   1.361e-08         25.0000        1                 
 18                3.580e-05        1.152e-04        1.142e-09        
                   7.171e-09         25.0000        1                 
 19                3.774e-05        8.374e-05        1.432e-09        
                   9.726e-09         25.0000        1                 
 20                4.891e-05        1.402e-04        1.627e-09        
                   1.278e-08         25.0000        1                 
 21                2.886e-05        1.576e-04        1.113e-09        
                   7.845e-09         25.0000        1                 
 22                5.126e-05        1.008e-04        1.637e-09        
                   1.203e-08         25.0000        1                 
 23                1.416e-04        8.827e-04        3.664e-09        
                  -9.261e-09         25.0000        1                 
 24                2.851e-05        1.520e-04        1.086e-09        
                   6.928e-09         25.0000        1                 
 25                1.101e-04        5.677e-05        1.743e-09        
                   1.077e-08         25.0000        1                 
 26                4.144e-05        1.575e-04        1.344e-09        
                   9.705e-09         25.0000        1                 
 27                1.339e-04        4.823e-05        2.959e-09        
                  -1.969e-08         25.0000        1                 
 28                2.413e-05        2.837e-04        6.716e-10        
                  -3.570e-08         25.0000        1                 
 29                8.940e-05        6.796e-05        1.517e-09        
                  -2.978e-08         25.0000        1                 
 30                4.485e-05        1.504e-04        6.543e-10        
                   3.428e-09         25.0000        1                 
 31                5.098e-05        1.081e-04        1.108e-09        
                   7.034e-09         25.0000        1                 
 32                3.806e-05        1.694e-04        1.606e-09        
                   1.358e-08         25.0000        1                 
 33                2.964e-05        1.378e-04        1.333e-09        
                   9.942e-09         25.0000        1                 
 34                5.630e-05          0.3153         3.413e-09        
                     failed          25.0000        1                 
 35                4.285e-05        9.908e-05        1.086e-09        
                   6.717e-09         25.0000        1                 
 36                3.034e-05        2.122e-04        9.913e-10        
                   6.846e-09         25.0000        1                 
 37                4.858e-05        9.687e-05        1.502e-09        
                   1.072e-08         25.0000        1                 
 38                1.292e-05        4.207e-04        1.149e-09        
                   9.144e-09         25.0000        1                 
 39                4.325e-05        1.824e-04        1.211e-09        
                   8.604e-09         25.0000        1                 
 40                1.479e-04        3.113e-04        3.104e-09        
                  -1.056e-08         25.0000        1                 
 41                1.463e-05        4.331e-04        1.548e-09        
                  -2.470e-08         25.0000        1                 
 42                4.507e-05        1.130e-04        1.695e-09        
                   1.323e-08         25.0000        1                 
 43                4.684e-05        1.314e-04        1.313e-09        
                   9.154e-09         25.0000        1                 
 44                1.833e-05        1.903e-04        8.100e-10        
                   5.099e-09         25.0000        1                 
 45                3.806e-05        8.373e-05        1.870e-09        
                   1.535e-08         25.0000        1                 
 46                6.927e-05        6.886e-05        1.494e-09        
                   9.886e-09         25.0000        1                 
 47                5.167e-05        9.583e-05        1.669e-09        
                   1.238e-08         25.0000        1                 
 48                6.879e-05        5.678e-05        1.372e-09        
                   8.270e-09         25.0000        1                 
 49                2.030e-05        1.687e-04        1.387e-09        
                   1.100e-08         25.0000        1                 
 50                4.910e-05        1.469e-04        1.127e-09        
                   7.250e-09         25.0000        1                 
 51                8.272e-05        5.778e-05        1.352e-09        
                  -3.142e-08         25.0000        1                 
 52                4.524e-05        1.336e-04        1.517e-09        
                   1.171e-08         25.0000        1                 
 53                3.583e-05        7.877e-05        2.010e-09        
                   1.761e-08         25.0000        1                 
 54                6.604e-05        7.150e-05        1.841e-09        
                  -2.620e-08         25.0000        1                 
 55                3.161e-05        1.648e-04        9.427e-10        
                   5.898e-09         25.0000        1                 
 56                7.925e-05        9.394e-05        1.874e-09        
                  -2.509e-08         25.0000        1                 
 57                2.777e-05        3.691e-04        8.230e-10        
                   5.348e-09         25.0000        1                 
 58                3.533e-05        1.079e-04        1.497e-09        
                   1.129e-08         25.0000        1                 
 59                2.519e-05        2.286e-04        1.935e-09        
                   1.891e-08         25.0000        1                 
 60                3.249e-05        1.700e-04        1.092e-09        
                   7.594e-09         25.0000        1                 
 61                6.110e-05        6.616e-05        2.248e-09        
                  -2.047e-08         25.0000        1                 
 62                3.307e-05        2.430e-04        1.071e-09        
                   7.239e-09         25.0000        1                 
 63                2.379e-05        2.036e-04        1.300e-09        
                   9.878e-09         25.0000        1                 
 64                4.425e-05        2.259e-04        7.798e-10        
                   4.388e-09         25.0000        1                 
 65                3.042e-05        1.262e-04        1.649e-09        
                   1.356e-08         25.0000        1                 
 66                2.231e-05        2.385e-04        1.217e-09        
                   9.214e-09         25.0000        1                 
 67                7.792e-05        1.624e-04        1.013e-09        
                   6.286e-09         25.0000        1                 
 68                2.740e-05        1.702e-04        1.812e-09        
                   1.571e-08         25.0000        1                 
 69                4.461e-05        1.146e-04        1.311e-09        
                   8.779e-09         25.0000        1                 
 70                8.081e-05        6.181e-05        2.615e-09        
                  -1.890e-08         25.0000        1                 
 71                4.164e-05        1.271e-04        2.223e-09        
                   2.161e-08         25.0000        1                 
 72                8.710e-05        6.882e-05        2.514e-09        
                  -1.859e-08         25.0000        1                 
 73                3.057e-05        2.292e-04        1.638e-09        
                   1.386e-08         25.0000        1                 
 74                1.090e-04        1.915e-04        2.780e-09        
                  -1.188e-08         25.0000        1                 
 75                3.963e-05        1.389e-04        1.257e-09        
                   8.884e-09         25.0000        1                 
 76                9.575e-06        3.577e-04        1.212e-09        
                   1.037e-08         25.0000        1                 
 77                4.773e-05        9.134e-05        2.281e-09        
                  -1.819e-08         25.0000        1                 
 78                1.415e-04        4.603e-05        1.994e-09        
                  -2.800e-08         25.0000        1                 
 79                3.158e-05        1.716e-04        9.415e-10        
                   5.815e-09         25.0000        1                 
 80                4.316e-05        9.509e-05        1.327e-09        
                   9.325e-09         25.0000        1                 
 81                4.820e-05        1.420e-04        1.946e-09        
                   1.644e-08         25.0000        1                 
 82                8.465e-05        7.551e-05        2.209e-09        
                  -2.182e-08         25.0000        1                 
 83                4.331e-05        1.326e-04        2.175e-09        
                   2.160e-08         25.0000        1                 
 84                3.120e-05        1.063e-04        1.603e-09        
                   1.287e-08         25.0000        1                 
 85                4.704e-05        1.086e-04        2.158e-09        
                   1.860e-08         25.0000        1                 
 86                2.692e-05        1.605e-04        1.814e-09        
                   1.657e-08         25.0000        1                 
 87                4.437e-05        1.045e-04        1.094e-09        
                   6.857e-09         25.0000        1                 
 88                2.580e-05        1.558e-04        1.715e-09        
                   1.535e-08         25.0000        1                 
 89                4.672e-05        1.184e-04        2.303e-09        
                   2.095e-08         25.0000        1                 
 90                1.868e-05        2.509e-04        9.174e-10        
                  -3.328e-08         25.0000        1                 
 91                4.879e-05        8.775e-05        1.447e-09        
                   1.013e-08         25.0000        1                 
 92                1.061e-04        5.811e-05        1.776e-09        
                  -2.885e-08         25.0000        1                 
 93                7.701e-05          0.1377         3.562e-09        
                   4.644e-10         25.0000        1                 
 94                7.205e-05        8.222e-05        1.461e-09        
                   9.435e-09         25.0000        1                 
 95                8.717e-05        8.385e-05        1.351e-09        
                   8.705e-09         25.0000        1                 
 96                7.934e-05        8.841e-05        1.264e-09        
                   8.148e-09         25.0000        1                 
 97                1.570e-05        2.776e-04        1.266e-09        
                  -2.880e-08         25.0000        1                 
 98                4.293e-05        9.236e-05        1.428e-09        
                   1.039e-08         25.0000        1                 
 99                1.748e-04        6.652e-05        3.315e-09        
                  -1.511e-08         25.0000        1                 
 100               8.629e-05        3.359e-03        2.213e-09        
                     failed          25.0000        1                 
