$DATA1 SOURCE='HSPICE' VERSION='F-2011.09 64-BIT'
.TITLE '* include model and subckts'
 index            write0           read0            delay_write0      
                  delay_read0      temper           alter#            
 1                 4.994e-05        6.904e-05        1.673e-09        
                   9.858e-09         25.0000        1                 
 2                 3.865e-05        1.394e-04        1.059e-09        
                   5.553e-09         25.0000        1                 
 3                 1.204e-04        3.481e-05        3.766e-09        
                   1.939e-08         25.0000        1                 
 4                 3.569e-05        9.491e-04        4.091e-09        
                   3.542e-08         25.0000        1                 
 5                 4.415e-05        1.234e-04        8.853e-10        
                   4.338e-09         25.0000        1                 
 6                 3.689e-05        7.352e-05        2.113e-09        
                   1.377e-08         25.0000        1                 
 7                 2.910e-05        1.174e-04        9.810e-10        
                   4.934e-09         25.0000        1                 
 8                 1.313e-05        2.399e-04        1.859e-09        
                   1.225e-08         25.0000        1                 
 9                 1.764e-05        1.819e-04        1.851e-09        
                   1.178e-08         25.0000        1                 
 10                7.014e-05        5.051e-05        2.682e-09        
                   1.628e-08         25.0000        1                 
 11                1.198e-05        3.368e-04        1.100e-09        
                   6.697e-09         25.0000        1                 
 12                1.207e-04        4.195e-05          failed         
                     failed          25.0000        1                 
 13                3.467e-05        1.154e-04        1.434e-09        
                   8.295e-09         25.0000        1                 
 14                5.290e-05        8.082e-05        9.844e-10        
                   4.762e-09         25.0000        1                 
 15                1.356e-05        2.125e-04          failed         
                     failed          25.0000        1                 
 16                8.408e-05        7.757e-05        1.793e-09        
                   1.060e-08         25.0000        1                 
 17                3.565e-05        9.599e-05        1.838e-09        
                   1.112e-08         25.0000        1                 
 18                2.437e-05        1.150e-04        1.170e-09        
                   6.155e-09         25.0000        1                 
 19                2.562e-05        8.358e-05        1.464e-09        
                   8.203e-09         25.0000        1                 
 20                3.362e-05        1.396e-04        1.666e-09        
                   1.012e-08         25.0000        1                 
 21                1.930e-05        1.571e-04        1.156e-09        
                   6.525e-09         25.0000        1                 
 22                3.551e-05        1.007e-04        1.663e-09        
                   9.926e-09         25.0000        1                 
 23                7.990e-05        5.330e-05        3.677e-09        
                   2.235e-08         25.0000        1                 
 24                1.932e-05        1.517e-04        1.115e-09        
                   5.908e-09         25.0000        1                 
 25                8.241e-05        5.670e-05        1.778e-09        
                   9.786e-09         25.0000        1                 
 26                2.848e-05        1.568e-04        1.378e-09        
                   7.914e-09         25.0000        1                 
 27                8.162e-05        4.498e-05        3.015e-09        
                   1.741e-08         25.0000        1                 
 28                1.688e-05        2.834e-04        7.188e-10        
                   3.834e-09         25.0000        1                 
 29                6.646e-05        6.794e-05        1.540e-09        
                   8.502e-09         25.0000        1                 
 30                3.301e-05        1.504e-04        6.906e-10        
                   3.238e-09         25.0000        1                 
 31                3.617e-05        1.080e-04        1.124e-09        
                   6.101e-09         25.0000        1                 
 32                2.518e-05        1.684e-04        1.669e-09        
                   1.059e-08         25.0000        1                 
 33                1.948e-05        1.372e-04        1.374e-09        
                   8.104e-09         25.0000        1                 
 34                3.654e-05        7.397e-05        3.467e-09        
                   2.417e-08         25.0000        1                 
 35                2.987e-05        9.914e-05        1.109e-09        
                   5.872e-09         25.0000        1                 
 36                2.117e-05        2.116e-04        1.040e-09        
                   5.746e-09         25.0000        1                 
 37                3.367e-05        9.679e-05        1.519e-09        
                   8.899e-09         25.0000        1                 
 38                8.429e-06        4.163e-04        1.252e-09        
                   7.355e-09         25.0000        1                 
 39                3.008e-05        1.818e-04        1.246e-09        
                   7.036e-09         25.0000        1                 
 40                4.202e-05        5.412e-05        3.121e-09        
                   2.110e-08         25.0000        1                 
 41                7.990e-06        4.293e-04        1.693e-09        
                   1.196e-08         25.0000        1                 
 42                3.036e-05        1.128e-04        1.730e-09        
                   1.062e-08         25.0000        1                 
 43                3.332e-05        1.312e-04        1.340e-09        
                   7.600e-09         25.0000        1                 
 44                1.234e-05        1.902e-04        8.563e-10        
                   4.457e-09         25.0000        1                 
 45                2.451e-05        8.340e-05        1.910e-09        
                   1.217e-08         25.0000        1                 
 46                4.985e-05        6.869e-05        1.526e-09        
                   8.556e-09         25.0000        1                 
 47                3.601e-05        9.586e-05        1.694e-09        
                   1.007e-08         25.0000        1                 
 48                4.970e-05        5.674e-05        1.438e-09        
                   7.556e-09         25.0000        1                 
 49                1.308e-05        1.691e-04        1.448e-09        
                   8.748e-09         25.0000        1                 
