$DATA1 SOURCE='HSPICE' VERSION='F-2011.09 64-BIT'
.TITLE '* include model and subckts'
 index            delay_write1     delay_read1      temper            
                  alter#            
 1                 1.560e-09        3.745e-09         25.0000         
                  1                 
 2                 8.965e-10        2.541e-09         25.0000         
                  1                 
 3                 3.380e-09        6.678e-09         25.0000         
                  1                 
 4                 3.758e-09        9.580e-09         25.0000         
                  1                 
 5                 7.728e-10        1.988e-09         25.0000         
                  1                 
 6                 1.967e-09        5.178e-09         25.0000         
                  1                 
 7                 8.559e-10        2.310e-09         25.0000         
                  1                 
 8                 1.528e-09        7.388e-09         25.0000         
                  1                 
 9                 1.532e-09        6.135e-09         25.0000         
                  1                 
 10                2.489e-09        5.560e-09         25.0000         
                  1                 
 11                8.378e-10        3.916e-09         25.0000         
                  1                 
 12                1.972e-09        3.941e-09         25.0000         
                  1                 
 13                1.247e-09        3.593e-09         25.0000         
                  1                 
 14                9.314e-10        2.136e-09         25.0000         
                  1                 
 15                1.143e-09        4.892e-09         25.0000         
                  1                 
 16                1.602e-09        3.880e-09         25.0000         
                  1                 
 17                1.625e-09        4.567e-09         25.0000         
                  1                 
 18                1.017e-09        2.888e-09         25.0000         
                  1                 
 19                1.350e-09        3.587e-09         25.0000         
                  1                 
 20                1.399e-09        4.463e-09         25.0000         
                  1                 
 21                9.841e-10        3.344e-09         25.0000         
                  1                 
 22                1.470e-09        4.145e-09         25.0000         
                  1                 
 23                3.213e-09        7.352e-09         25.0000         
                  1                 
 24                9.324e-10        3.024e-09         25.0000         
                  1                 
 25                1.684e-09        3.731e-09         25.0000         
                  1                 
 26                1.146e-09        3.728e-09         25.0000         
                  1                 
 27                2.772e-09        5.933e-09         25.0000         
                  1                 
 28                5.538e-10        2.052e-09         25.0000         
                  1                 
 29                1.440e-09        3.348e-09         25.0000         
                  1                 
 30                5.936e-10        1.600e-09         25.0000         
                  1                 
 31                1.007e-09        2.687e-09         25.0000         
                  1                 
 32                1.407e-09        5.021e-09         25.0000         
                  1                 
 33                1.189e-09        4.008e-09         25.0000         
                  1                 
 34                3.082e-09        8.141e-09         25.0000         
                  1                 
 35                1.006e-09        2.637e-09         25.0000         
                  1                 
 36                8.523e-10        3.059e-09         25.0000         
                  1                 
 37                1.362e-09        3.764e-09         25.0000         
                  1                 
 38                9.685e-10        5.345e-09         25.0000         
                  1                 
 39                1.023e-09        3.371e-09         25.0000         
                  1                 
 40                2.942e-09        7.019e-09         25.0000         
                  1                 
 41                1.336e-09        7.995e-09         25.0000         
                  1                 
 42                1.511e-09        4.598e-09         25.0000         
                  1                 
 43                1.140e-09        3.398e-09         25.0000         
                  1                 
 44                7.145e-10        2.649e-09         25.0000         
                  1                 
 45                1.774e-09        5.148e-09         25.0000         
                  1                 
 46                1.441e-09        3.419e-09         25.0000         
                  1                 
 47                1.503e-09        4.169e-09         25.0000         
                  1                 
 48                1.416e-09        3.129e-09         25.0000         
                  1                 
 49                1.238e-09        5.092e-09         25.0000         
                  1                 
 50                9.607e-10        2.834e-09         25.0000         
                  1                 
 51                1.384e-09        3.042e-09         25.0000         
                  1                 
 52                1.327e-09        4.171e-09         25.0000         
                  1                 
 53                1.955e-09        5.784e-09         25.0000         
                  1                 
 54                1.712e-09        4.265e-09         25.0000         
                  1                 
 55                8.164e-10        2.614e-09         25.0000         
                  1                 
 56                1.661e-09        4.452e-09         25.0000         
                  1                 
 57                6.641e-10        2.696e-09         25.0000         
                  1                 
 58                1.365e-09        4.178e-09         25.0000         
                  1                 
 59                1.733e-09        8.303e-09         25.0000         
                  1                 
 60                9.495e-10        3.200e-09         25.0000         
                  1                 
 61                2.167e-09        5.492e-09         25.0000         
                  1                 
 62                8.805e-10        3.197e-09         25.0000         
                  1                 
 63                1.116e-09        4.445e-09         25.0000         
                  1                 
 64                6.406e-10        2.017e-09         25.0000         
                  1                 
 65                1.485e-09        5.090e-09         25.0000         
                  1                 
 66                1.036e-09        4.345e-09         25.0000         
                  1                 
 67                8.516e-10        2.406e-09         25.0000         
                  1                 
 68                1.580e-09        6.331e-09         25.0000         
                  1                 
 69                1.159e-09        3.286e-09         25.0000         
                  1                 
 70                2.451e-09        5.846e-09         25.0000         
                  1                 
 71                2.025e-09        7.334e-09         25.0000         
                  1                 
 72                2.339e-09        5.784e-09         25.0000         
                  1                 
 73                1.395e-09        5.704e-09         25.0000         
                  1                 
 74                2.583e-09        6.952e-09         25.0000         
                  1                 
 75                1.102e-09        3.431e-09         25.0000         
                  1                 
 76                1.065e-09        6.892e-09         25.0000         
                  1                 
 77                2.116e-09        6.323e-09         25.0000         
                  1                 
 78                1.976e-09        4.107e-09         25.0000         
                  1                 
 79                8.126e-10        2.637e-09         25.0000         
                  1                 
 80                1.235e-09        3.377e-09         25.0000         
                  1                 
 81                1.666e-09        5.458e-09         25.0000         
                  1                 
 82                2.018e-09        5.119e-09         25.0000         
                  1                 
 83                1.997e-09        7.396e-09         25.0000         
                  1                 
 84                1.480e-09        4.734e-09         25.0000         
                  1                 
 85                1.916e-09        5.906e-09         25.0000         
                  1                 
 86                1.638e-09        6.689e-09         25.0000         
                  1                 
 87                1.002e-09        2.671e-09         25.0000         
                  1                 
 88                1.550e-09        6.249e-09         25.0000         
                  1                 
 89                2.042e-09        6.591e-09         25.0000         
                  1                 
 90                7.770e-10        3.157e-09         25.0000         
                  1                 
 91                1.346e-09        3.564e-09         25.0000         
                  1                 
 92                1.687e-09        3.735e-09         25.0000         
                  1                 
 93                3.362e-09        7.900e-09         25.0000         
                  1                 
 94                1.340e-09        3.315e-09         25.0000         
                  1                 
 95                1.247e-09        3.038e-09         25.0000         
                  1                 
 96                1.170e-09        2.887e-09         25.0000         
                  1                 
 97                1.097e-09        5.536e-09         25.0000         
                  1                 
 98                1.335e-09        3.695e-09         25.0000         
                  1                 
 99                3.066e-09        6.750e-09         25.0000         
                  1                 
 100               2.078e-09        1.275e-08         25.0000         
                  1                 
