$DATA1 SOURCE='HSPICE' VERSION='F-2011.09 64-BIT'
.TITLE '* include model and subckts'
 index            write1           t_rwlend         v_read1           
                  delay_write1     delay_read1      temper            
                  alter#            
 1                   0.3500         7.421e-08          0.3497         
                   2.650e-09        7.896e-09         25.0000         
                  1                 
 2                   0.3499         7.303e-08          0.3498         
                   1.642e-09        5.984e-09         25.0000         
                  1                 
 3                   0.3500         7.672e-08          0.3497         
                   5.344e-09        1.187e-08         25.0000         
                  1                 
 4                   0.3499         7.935e-08          0.3357         
                   7.140e-09        2.126e-08         25.0000         
                  1                 
 5                   0.3499         7.251e-08          0.3497         
                   1.318e-09        4.373e-09         25.0000         
                  1                 
 6                   0.3500         7.544e-08          0.3498         
                   3.515e-09        1.160e-08         25.0000         
                  1                 
 7                   0.3499         7.277e-08          0.3497         
                   1.468e-09        5.201e-09         25.0000         
                  1                 
 8                   0.3499         7.597e-08        3.006e-04        
                   3.262e-09        2.083e-08         25.0000         
                  1                 
 9                   0.3499         7.556e-08          0.3500         
                   3.185e-09        1.643e-08         25.0000         
                  1                 
 10                  0.3500         7.590e-08          0.3498         
                   4.239e-09        1.099e-08         25.0000         
                  1                 
 11                  0.3498         7.362e-08          0.3499         
                   1.755e-09        1.077e-08         25.0000         
                  1                 
 12                  0.3500         7.425e-08          0.3495         
                   2.891e-09        6.825e-09         25.0000         
                  1                 
 13                  0.3499         7.400e-08          0.3498         
                   2.326e-09        8.606e-09         25.0000         
                  1                 
 14                  0.3499         7.263e-08          0.3495         
                   1.445e-09        4.178e-09         25.0000         
                  1                 
 15                  0.3499         7.441e-08          0.3499         
                   2.337e-09        1.297e-08         25.0000         
                  1                 
 16                  0.3500         7.444e-08          0.3498         
                   2.881e-09        8.211e-09         25.0000         
                  1                 
 17                  0.3500         7.488e-08          0.3499         
                   3.011e-09        1.062e-08         25.0000         
                  1                 
 18                  0.3499         7.326e-08          0.3498         
                   1.788e-09        6.663e-09         25.0000         
                  1                 
 19                  0.3500         7.393e-08          0.3498         
                   2.293e-09        7.947e-09         25.0000         
                  1                 
 20                  0.3499         7.471e-08          0.3499         
                   2.785e-09        1.120e-08         25.0000         
                  1                 
 21                  0.3499         7.354e-08          0.3499         
                   1.891e-09        8.352e-09         25.0000         
                  1                 
 22                  0.3500         7.450e-08          0.3499         
                   2.711e-09        9.675e-09         25.0000         
                  1                 
 23                  0.3500         7.760e-08          0.3499         
                   5.867e-09        1.488e-08         25.0000         
                  1                 
 24                  0.3499         7.328e-08          0.3498         
                   1.737e-09        7.371e-09         25.0000         
                  1                 
 25                  0.3500         7.420e-08          0.3497         
                   2.728e-09        7.322e-09         25.0000         
                  1                 
 26                  0.3499         7.400e-08          0.3499         
                   2.260e-09        9.464e-09         25.0000         
                  1                 
 27                  0.3500         7.618e-08          0.3497         
                   4.588e-09        1.120e-08         25.0000         
                  1                 
 28                  0.3497         7.233e-08          0.3498         
                   1.065e-09        5.171e-09         25.0000         
                  1                 
 29                  0.3500         7.385e-08          0.3497         
                   2.395e-09        6.804e-09         25.0000         
                  1                 
 30                  0.3498         7.208e-08          0.3496         
                   1.011e-09        3.536e-09         25.0000         
                  1                 
 31                  0.3499         7.319e-08          0.3498         
                   1.768e-09        6.108e-09         25.0000         
                  1                 
 32                  0.3499         7.501e-08          0.3499         
                   2.908e-09        1.325e-08         25.0000         
                  1                 
 33                  0.3499         7.409e-08          0.3499         
                   2.287e-09        1.003e-08         25.0000         
                  1                 
 34                  0.3500         7.817e-08          0.3500         
                   5.976e-09        1.838e-08         25.0000         
                  1                 
 35                  0.3499         7.311e-08          0.3497         
                   1.708e-09        5.845e-09         25.0000         
                  1                 
 36                  0.3498         7.330e-08          0.3499         
                   1.690e-09        7.905e-09         25.0000         
                  1                 
 37                  0.3500         7.416e-08          0.3498         
                   2.450e-09        8.679e-09         25.0000         
                  1                 
 38                  0.3498         7.437e-08          0.3500         
                   2.049e-09        1.557e-08         25.0000         
                  1                 
 39                  0.3499         7.371e-08          0.3499         
                   2.038e-09        8.716e-09         25.0000         
                  1                 
 40                  0.3500         7.724e-08          0.3499         
                   5.251e-09        1.456e-08         25.0000         
                  1                 
 41                  0.3498         7.593e-08        4.105e-04        
                   2.912e-09          failed          25.0000         
                  1                 
 42                  0.3500         7.480e-08          0.3499         
                   2.885e-09        1.114e-08         25.0000         
                  1                 
 43                  0.3499         7.379e-08          0.3499         
                   2.152e-09        8.239e-09         25.0000         
                  1                 
 44                  0.3498         7.278e-08          0.3498         
                   1.325e-09        6.359e-09         25.0000         
                  1                 
 45                  0.3500         7.518e-08          0.3499         
                   3.196e-09        1.180e-08         25.0000         
                  1                 
 46                  0.3500         7.390e-08          0.3497         
                   2.399e-09        7.079e-09         25.0000         
                  1                 
 47                  0.3500         7.454e-08          0.3498         
                   2.744e-09        9.606e-09         25.0000         
                  1                 
 48                  0.3500         7.355e-08          0.3496         
                   2.157e-09        5.920e-09         25.0000         
                  1                 
 49                  0.3499         7.454e-08          0.3499         
                   2.433e-09        1.304e-08         25.0000         
                  1                 
 50                  0.3499         7.329e-08          0.3498         
                   1.800e-09        6.836e-09         25.0000         
                  1                 
 51                  0.3500         7.348e-08          0.3496         
                   2.119e-09        5.724e-09         25.0000         
                  1                 
 52                  0.3499         7.445e-08          0.3499         
                   2.594e-09        1.039e-08         25.0000         
                  1                 
 53                  0.3500         7.564e-08          0.3499         
                   3.527e-09        1.329e-08         25.0000         
                  1                 
 54                  0.3500         7.467e-08          0.3498         
                   2.986e-09        9.170e-09         25.0000         
                  1                 
 55                  0.3499         7.295e-08          0.3498         
                   1.523e-09        6.365e-09         25.0000         
                  1                 
 56                  0.3500         7.492e-08          0.3499         
                   3.151e-09        1.025e-08         25.0000         
                  1                 
 57                  0.3497         7.289e-08          0.3499         
                   1.375e-09        7.380e-09         25.0000         
                  1                 
 58                  0.3500         7.435e-08          0.3499         
                   2.527e-09        9.944e-09         25.0000         
                  1                 
 59                  0.3499         7.667e-08        2.168e-04        
                   3.737e-09        2.393e-08         25.0000         
                  1                 
 60                  0.3499         7.347e-08          0.3499         
                   1.845e-09        8.072e-09         25.0000         
                  1                 
 61                  0.3500         7.576e-08          0.3498         
                   3.850e-09        1.199e-08         25.0000         
                  1                 
 62                  0.3499         7.343e-08          0.3499         
                   1.785e-09        8.588e-09         25.0000         
                  1                 
 63                  0.3499         7.425e-08          0.3499         
                   2.259e-09        1.182e-08         25.0000         
                  1                 
 64                  0.3498         7.247e-08          0.3498         
                   1.227e-09        4.999e-09         25.0000         
                  1                 
 65                  0.3499         7.497e-08          0.3499         
                   2.883e-09        1.262e-08         25.0000         
                  1                 
 66                  0.3499         7.410e-08          0.3499         
                   2.130e-09        1.169e-08         25.0000         
                  1                 
 67                  0.3499         7.298e-08          0.3498         
                   1.620e-09        5.799e-09         25.0000         
                  1                 
 68                  0.3499         7.561e-08          0.3500         
                   3.245e-09        1.689e-08         25.0000         
                  1                 
 69                  0.3499         7.370e-08          0.3498         
                   2.107e-09        7.730e-09         25.0000         
                  1                 
 70                  0.3500         7.617e-08          0.3498         
                   4.293e-09        1.226e-08         25.0000         
                  1                 
 71                  0.3500         7.657e-08          0.3500         
                   4.068e-09        1.886e-08         25.0000         
                  1                 
 72                  0.3500         7.613e-08          0.3498         
                   4.253e-09        1.259e-08         25.0000         
                  1                 
 73                  0.3499         7.531e-08          0.3500         
                   2.994e-09        1.585e-08         25.0000         
                  1                 
 74                  0.3500         7.700e-08          0.3499         
                   4.855e-09        1.570e-08         25.0000         
                  1                 
 75                  0.3499         7.376e-08          0.3499         
                   2.095e-09        8.461e-09         25.0000         
                  1                 
 76                  0.3498         7.490e-08       -2.790e-03        
                   2.205e-09        1.958e-08         25.0000         
                  1                 
 77                  0.3500         7.626e-08          0.3499         
                   4.027e-09        1.499e-08         25.0000         
                  1                 
 78                  0.3500         7.447e-08          0.3496         
                   3.052e-09        7.409e-09         25.0000         
                  1                 
 79                  0.3499         7.297e-08          0.3498         
                   1.529e-09        6.488e-09         25.0000         
                  1                 
 80                  0.3499         7.378e-08          0.3498         
                   2.167e-09        7.748e-09         25.0000         
                  1                 
 81                  0.3499         7.560e-08          0.3499         
                   3.371e-09        1.392e-08         25.0000         
                  1                 
 82                  0.3500         7.554e-08          0.3498         
                   3.724e-09        1.132e-08         25.0000         
                  1                 
 83                  0.3500         7.659e-08          0.3500         
                   4.029e-09        1.922e-08         25.0000         
                  1                 
 84                  0.3500         7.472e-08          0.3499         
                   2.755e-09        1.143e-08         25.0000         
                  1                 
 85                  0.3500         7.596e-08          0.3500         
                   3.748e-09        1.445e-08         25.0000         
                  1                 
 86                  0.3499         7.580e-08          0.3500         
                   3.347e-09        1.772e-08         25.0000         
                  1                 
 87                  0.3499         7.314e-08          0.3497         
                   1.732e-09        6.018e-09         25.0000         
                  1                 
 88                  0.3499         7.551e-08          0.3500         
                   3.146e-09        1.630e-08         25.0000         
                  1                 
 89                  0.3500         7.642e-08          0.3500         
                   4.090e-09        1.640e-08         25.0000         
                  1                 
 90                  0.3498         7.317e-08          0.3499         
                   1.540e-09        8.319e-09         25.0000         
                  1                 
 91                  0.3500         7.399e-08          0.3498         
                   2.357e-09        8.009e-09         25.0000         
                  1                 
 92                  0.3500         7.417e-08          0.3497         
                   2.707e-09        7.138e-09         25.0000         
                  1                 
 93                  0.3500         7.795e-08          0.3499         
                   6.001e-09        1.631e-08         25.0000         
                  1                 
 94                  0.3500         7.383e-08          0.3498         
                   2.303e-09        7.088e-09         25.0000         
                  1                 
 95                  0.3499         7.359e-08          0.3497         
                   2.164e-09        6.506e-09         25.0000         
                  1                 
 96                  0.3499         7.346e-08          0.3497         
                   2.026e-09        6.271e-09         25.0000         
                  1                 
 97                  0.3499         7.456e-08          0.3496         
                   2.290e-09        1.486e-08         25.0000         
                  1                 
 98                  0.3500         7.406e-08          0.3498         
                   2.372e-09        8.441e-09         25.0000         
                  1                 
 99                  0.3500         7.693e-08          0.3498         
                   5.261e-09        1.318e-08         25.0000         
                  1                 
 100                 0.3500         7.809e-08        2.007e-04        
                   4.394e-09          failed          25.0000         
                  1                 
