$DATA1 SOURCE='HSPICE' VERSION='F-2011.09 64-BIT'
.TITLE '* include model and subckts'
 index            write0           read0            delay_write0      
                  delay_read0      temper           alter#            
 1                 3.737e-05        6.900e-05        1.638e-09        
                  -2.908e-08         25.0000        1                 
 2                 3.043e-05        1.395e-04        9.899e-10        
                   5.844e-09         25.0000        1                 
 3                 1.396e-04        3.739e-05        4.573e-09        
                   1.965e-08         25.0000        1                 
 4                -4.877e-05          0.3497         4.436e-09        
                     failed          25.0000        1                 
 5                 3.789e-05        1.234e-04        8.182e-10        
                   4.299e-09         25.0000        1                 
 6                 2.298e-05        7.397e-05        2.114e-09        
                  -2.355e-08         25.0000        1                 
 7                 2.121e-05        1.173e-04        9.073e-10        
                   5.093e-09         25.0000        1                 
 8                 1.255e-05        2.407e-04        1.693e-09        
                   1.614e-08         25.0000        1                 
 9                 9.997e-06        1.817e-04        1.731e-09        
                   1.519e-08         25.0000        1                 
 10                6.356e-05        5.133e-05        2.884e-09        
                  -2.175e-08         25.0000        1                 
 11                6.987e-06        3.395e-04        9.704e-10        
                  -3.229e-08         25.0000        1                 
 12                1.161e-04        4.199e-05        2.311e-09        
                  -2.934e-08         25.0000        1                 
 13                2.414e-05        1.154e-04        1.363e-09        
                   9.361e-09         25.0000        1                 
 14                4.708e-05        8.070e-05        9.065e-10        
                   4.658e-09         25.0000        1                 
 15                7.661e-06        2.131e-04        1.275e-09        
                   1.014e-08         25.0000        1                 
 16                7.279e-05        7.773e-05        1.779e-09        
                  -2.851e-08         25.0000        1                 
 17                2.380e-05        9.613e-05        1.798e-09        
                   1.292e-08         25.0000        1                 
 18                1.669e-05        1.152e-04        1.106e-09        
                   6.698e-09         25.0000        1                 
 19                1.629e-05        8.387e-05        1.410e-09        
                   9.225e-09         25.0000        1                 
 20                2.218e-05        1.399e-04        1.569e-09        
                   1.189e-08         25.0000        1                 
 21                1.207e-05        1.573e-04        1.073e-09        
                   7.340e-09         25.0000        1                 
 22                2.375e-05        1.007e-04        1.611e-09        
                   1.130e-08         25.0000        1                 
 23                7.844e-05        1.681e-04        4.156e-09        
                  -1.187e-08         25.0000        1                 
 24                1.232e-05        1.518e-04        1.045e-09        
                   6.548e-09         25.0000        1                 
 25                7.154e-05        5.673e-05        1.770e-09        
                   9.849e-09         25.0000        1                 
 26                1.896e-05        1.574e-04        1.285e-09        
                   9.084e-09         25.0000        1                 
 27                7.591e-05        4.631e-05        3.325e-09        
                  -2.064e-08         25.0000        1                 
 28                1.135e-05        2.836e-04        6.380e-10        
                  -3.595e-08         25.0000        1                 
 29                5.609e-05        6.791e-05        1.497e-09        
                  -3.070e-08         25.0000        1                 
 30                2.682e-05        1.504e-04        6.212e-10        
                   3.122e-09         25.0000        1                 
 31                2.769e-05        1.080e-04        1.064e-09        
                   6.437e-09         25.0000        1                 
 32                1.550e-05        1.684e-04        1.547e-09        
                   1.287e-08         25.0000        1                 
 33                1.171e-05        1.376e-04        1.293e-09        
                   9.544e-09         25.0000        1                 
 34               -1.632e-07          0.2273         3.600e-09        
                     failed          25.0000        1                 
 35                2.160e-05        9.910e-05        1.042e-09        
                   6.178e-09         25.0000        1                 
 36                1.394e-05        2.119e-04        9.401e-10        
                   6.357e-09         25.0000        1                 
 37                2.280e-05        9.682e-05        1.464e-09        
                   1.012e-08         25.0000        1                 
 38                4.992e-06        4.200e-04        1.105e-09        
                   9.158e-09         25.0000        1                 
 39                2.085e-05        1.821e-04        1.151e-09        
                   7.920e-09         25.0000        1                 
 40                1.008e-04        9.135e-05        3.353e-09        
                  -1.291e-08         25.0000        1                 
 41                9.498e-06        4.325e-04        1.506e-09        
                  -2.400e-08         25.0000        1                 
 42                1.903e-05        1.128e-04        1.662e-09        
                   1.248e-08         25.0000        1                 
 43                2.337e-05        1.312e-04        1.264e-09        
                   8.507e-09         25.0000        1                 
 44                7.565e-06        1.904e-04        7.760e-10        
                   4.817e-09         25.0000        1                 
 45                1.440e-05        8.350e-05        1.870e-09        
                   1.480e-08         25.0000        1                 
 46                3.818e-05        6.878e-05        1.485e-09        
                   9.060e-09         25.0000        1                 
 47                2.413e-05        9.569e-05        1.641e-09        
                   1.160e-08         25.0000        1                 
 48                3.904e-05        5.683e-05        1.359e-09        
                   7.601e-09         25.0000        1                 
 49                7.438e-06        1.686e-04        1.354e-09        
                   1.098e-08         25.0000        1                 
 50                2.660e-05        1.468e-04        1.081e-09        
                   6.622e-09         25.0000        1                 
 51                5.126e-05        5.777e-05        1.338e-09        
                  -3.214e-08         25.0000        1                 
 52                2.014e-05        1.335e-04        1.469e-09        
                   1.103e-08         25.0000        1                 
 53                1.549e-05        7.836e-05        2.037e-09        
                   1.707e-08         25.0000        1                 
 54                3.292e-05        7.151e-05        1.834e-09        
                  -2.717e-08         25.0000        1                 
 55                1.484e-05        1.648e-04        9.004e-10        
                   5.453e-09         25.0000        1                 
 56                4.159e-05        9.342e-05        1.834e-09        
                  -2.624e-08         25.0000        1                 
 57                1.303e-05        3.690e-04        7.765e-10        
                   5.026e-09         25.0000        1                 
 58                1.438e-05        1.077e-04        1.468e-09        
                   1.080e-08         25.0000        1                 
 59                1.964e-05        2.278e-04        1.906e-09        
                   1.923e-08         25.0000        1                 
 60                1.441e-05        1.697e-04        1.047e-09        
                   7.039e-09         25.0000        1                 
 61                2.710e-05        6.511e-05        2.295e-09        
                  -2.164e-08         25.0000        1                 
 62                1.536e-05        2.427e-04        1.018e-09        
                   6.779e-09         25.0000        1                 
 63                8.966e-06        2.034e-04        1.257e-09        
                   9.650e-09         25.0000        1                 
 64                2.710e-05        2.257e-04        7.387e-10        
                   4.041e-09         25.0000        1                 
 65                1.091e-05        1.254e-04        1.621e-09        
                   1.320e-08         25.0000        1                 
 66                8.514e-06        2.382e-04        1.172e-09        
                   8.913e-09         25.0000        1                 
 67                5.379e-05        1.623e-04        9.472e-10        
                   5.572e-09         25.0000        1                 
 68                1.327e-05        1.702e-04        1.786e-09        
                   1.568e-08         25.0000        1                 
 69                2.166e-05        1.146e-04        1.273e-09        
                   8.215e-09         25.0000        1                 
 70                3.603e-05        6.009e-05        2.731e-09        
                  -1.997e-08         25.0000        1                 
 71                2.721e-05        1.253e-04        2.228e-09        
                   2.134e-08         25.0000        1                 
 72                3.920e-05        6.622e-05        2.614e-09        
                  -1.995e-08         25.0000        1                 
 73                1.223e-05        2.289e-04        1.582e-09        
                   1.346e-08         25.0000        1                 
 74                7.705e-05        8.536e-05        2.867e-09        
                  -1.421e-08         25.0000        1                 
 75                1.822e-05        1.388e-04        1.215e-09        
                   8.263e-09         25.0000        1                 
 76                4.562e-06        3.631e-04        1.189e-09        
                   1.138e-08         25.0000        1                 
 77                2.648e-05        8.943e-05        2.321e-09        
                  -1.926e-08         25.0000        1                 
 78                9.952e-05        4.599e-05        2.126e-09        
                  -2.881e-08         25.0000        1                 
 79                1.459e-05        1.716e-04        9.009e-10        
                   5.422e-09         25.0000        1                 
 80                1.999e-05        9.513e-05        1.293e-09        
                   8.613e-09         25.0000        1                 
 81                2.244e-05        1.413e-04        1.892e-09        
                   1.559e-08         25.0000        1                 
 82                4.264e-05        7.454e-05        2.236e-09        
                  -2.319e-08         25.0000        1                 
 83                2.221e-05        1.307e-04        2.181e-09        
                   2.124e-08         25.0000        1                 
 84                1.118e-05        1.062e-04        1.584e-09        
                   1.244e-08         25.0000        1                 
 85                2.085e-05        1.078e-04        2.147e-09        
                   1.788e-08         25.0000        1                 
 86                1.173e-05        1.603e-04        1.794e-09        
                   1.658e-08         25.0000        1                 
 87                2.276e-05        1.044e-04        1.058e-09        
                   6.277e-09         25.0000        1                 
 88                8.674e-06        1.558e-04        1.691e-09        
                   1.526e-08         25.0000        1                 
 89                2.453e-05        1.162e-04        2.299e-09        
                   2.020e-08         25.0000        1                 
 90                7.609e-06        2.502e-04        8.866e-10        
                  -3.363e-08         25.0000        1                 
 91                2.318e-05        8.769e-05        1.415e-09        
                   9.448e-09         25.0000        1                 
 92                6.949e-05        5.812e-05        1.791e-09        
                  -2.980e-08         25.0000        1                 
 93                2.689e-05        2.390e-02        3.955e-09        
                  -3.175e-09         25.0000        1                 
 94                4.161e-05        8.223e-05        1.427e-09        
                   8.660e-09         25.0000        1                 
 95                5.611e-05        8.371e-05        1.303e-09        
                   7.839e-09         25.0000        1                 
 96                4.983e-05        8.837e-05        1.215e-09        
                   7.351e-09         25.0000        1                 
 97                5.484e-06        2.772e-04        1.226e-09        
                  -2.894e-08         25.0000        1                 
 98                1.920e-05        9.229e-05        1.396e-09        
                   9.705e-09         25.0000        1                 
 99                1.182e-04        5.304e-05        3.732e-09        
                  -1.637e-08         25.0000        1                 
 100               6.048e-05          0.3482         2.249e-09        
                     failed          25.0000        1                 
