$DATA1 SOURCE='HSPICE' VERSION='F-2011.09 64-BIT'
.TITLE '* include model and subckts'
 index            write0           read0            delay_write0      
                  delay_read0      temper           alter#            
 1                 4.986e-05        6.913e-05        1.657e-09        
                   9.790e-09         25.0000        1                 
 2                 3.865e-05        1.394e-04        1.053e-09        
                   5.505e-09         25.0000        1                 
 3                 1.205e-04        3.487e-05        3.791e-09        
                   1.924e-08         25.0000        1                 
 4                 3.572e-05        1.538e-04        4.083e-09        
                   3.500e-08         25.0000        1                 
 5                 4.415e-05        1.234e-04        8.801e-10        
                   4.281e-09         25.0000        1                 
 6                 3.621e-05        7.361e-05        2.113e-09        
                   1.364e-08         25.0000        1                 
 7                 2.909e-05        1.173e-04        9.645e-10        
                   4.872e-09         25.0000        1                 
 8                 1.314e-05        2.398e-04        1.817e-09        
                   1.214e-08         25.0000        1                 
 9                 1.765e-05        1.818e-04        1.818e-09        
                   1.167e-08         25.0000        1                 
 10                7.011e-05        5.046e-05        2.688e-09        
                   1.610e-08         25.0000        1                 
 11                1.196e-05        3.367e-04        1.068e-09        
                   6.600e-09         25.0000        1                 
 12                1.207e-04        4.192e-05          failed         
                     failed          25.0000        1                 
 13                3.467e-05        1.154e-04        1.425e-09        
                   8.192e-09         25.0000        1                 
 14                5.290e-05        8.081e-05        9.885e-10        
                   4.774e-09         25.0000        1                 
 15                1.356e-05        2.125e-04          failed         
                     failed          25.0000        1                 
 16                8.412e-05        7.767e-05        1.791e-09        
                   1.052e-08         25.0000        1                 
 17                3.566e-05        9.594e-05        1.818e-09        
                   1.100e-08         25.0000        1                 
 18                2.437e-05        1.152e-04        1.162e-09        
                   6.076e-09         25.0000        1                 
 19                2.561e-05        8.356e-05        1.460e-09        
                   8.100e-09         25.0000        1                 
 20                3.362e-05        1.396e-04        1.648e-09        
                   9.987e-09         25.0000        1                 
 21                1.930e-05        1.570e-04        1.145e-09        
                   6.474e-09         25.0000        1                 
 22                3.550e-05        1.007e-04        1.650e-09        
                   9.797e-09         25.0000        1                 
 23                7.991e-05        5.315e-05        3.685e-09        
                   2.217e-08         25.0000        1                 
 24                1.937e-05        1.517e-04        1.103e-09        
                   5.857e-09         25.0000        1                 
 25                8.240e-05        5.673e-05        1.779e-09        
                   9.669e-09         25.0000        1                 
 26                2.850e-05        1.568e-04        1.363e-09        
                   7.845e-09         25.0000        1                 
 27                8.171e-05        4.481e-05        3.017e-09        
                   1.726e-08         25.0000        1                 
 28                1.689e-05        2.835e-04        7.037e-10        
                   3.776e-09         25.0000        1                 
 29                6.642e-05        6.776e-05        1.537e-09        
                   8.415e-09         25.0000        1                 
 30                3.304e-05        1.503e-04        6.890e-10        
                   3.190e-09         25.0000        1                 
 31                3.609e-05        1.079e-04        1.127e-09        
                   6.014e-09         25.0000        1                 
 32                2.513e-05        1.684e-04        1.659e-09        
                   1.047e-08         25.0000        1                 
 33                1.948e-05        1.372e-04        1.356e-09        
                   8.011e-09         25.0000        1                 
 34                3.651e-05        7.382e-05        3.433e-09        
                   2.405e-08         25.0000        1                 
 35                2.987e-05        9.893e-05        1.106e-09        
                   5.800e-09         25.0000        1                 
 36                2.117e-05        2.116e-04        1.028e-09        
                   5.678e-09         25.0000        1                 
 37                3.366e-05        9.687e-05        1.510e-09        
                   8.791e-09         25.0000        1                 
 38                8.428e-06        4.163e-04        1.228e-09        
                   7.272e-09         25.0000        1                 
 39                3.008e-05        1.818e-04        1.231e-09        
                   6.979e-09         25.0000        1                 
 40                4.207e-05        5.418e-05        3.117e-09        
                   2.102e-08         25.0000        1                 
 41                8.002e-06        4.294e-04        1.657e-09        
                   1.188e-08         25.0000        1                 
 42                3.048e-05        1.128e-04        1.718e-09        
                   1.057e-08         25.0000        1                 
 43                3.332e-05        1.311e-04        1.324e-09        
                   7.509e-09         25.0000        1                 
 44                1.233e-05        1.903e-04        8.412e-10        
                   4.394e-09         25.0000        1                 
 45                2.437e-05        8.333e-05        1.893e-09        
                   1.205e-08         25.0000        1                 
 46                4.984e-05        6.885e-05        1.532e-09        
                   8.467e-09         25.0000        1                 
 47                3.601e-05        9.584e-05        1.682e-09        
                   9.935e-09         25.0000        1                 
 48                4.971e-05        5.677e-05        1.441e-09        
                   7.473e-09         25.0000        1                 
 49                1.308e-05        1.689e-04        1.431e-09        
                   8.823e-09         25.0000        1                 
 50                3.539e-05        1.466e-04        1.141e-09        
                   6.078e-09         25.0000        1                 
