$DATA1 SOURCE='HSPICE' VERSION='F-2011.09 64-BIT'
.TITLE '* include model and subckts'
 index            write1           read1            delay_write1      
                  delay_read1      temper           alter#            
 1                   0.3500           0.3498         5.120e-09        
                   8.852e-09         25.0000        1                 
 2                   0.3499           0.3498         2.769e-09        
                   6.627e-09         25.0000        1                 
 3                 1.564e-04        3.469e-05          failed         
                     failed          25.0000        1                 
 4                 7.707e-05        6.045e-05          failed         
                     failed          25.0000        1                 
 5                   0.3499           0.3497         2.410e-09        
                   4.864e-09         25.0000        1                 
 6                   0.3500           0.3498         7.417e-09        
                   1.572e-08         25.0000        1                 
 7                   0.3499           0.3497         2.661e-09        
                   5.964e-09         25.0000        1                 
 8                   0.3499           0.3499         4.219e-09        
                   2.100e-08         25.0000        1                 
 9                   0.3500           0.3499         4.456e-09        
                   1.785e-08         25.0000        1                 
 10                1.063e-04        4.998e-05          failed         
                     failed          25.0000        1                 
 11                  0.3498           0.3499         2.250e-09        
                   9.708e-09         25.0000        1                 
 12                1.442e-04        4.199e-05          failed         
                     failed          25.0000        1                 
 13                  0.3499           0.3499         3.917e-09        
                   9.701e-09         25.0000        1                 
 14                  0.3499           0.3495         2.996e-09        
                   4.695e-09         25.0000        1                 
 15                  0.3499           0.3499         3.253e-09        
                   1.353e-08         25.0000        1                 
 16                  0.3500           0.3498         5.286e-09        
                   8.766e-09         25.0000        1                 
 17                  0.3500           0.3499         5.151e-09        
                   1.208e-08         25.0000        1                 
 18                  0.3499           0.3498         3.151e-09        
                   7.636e-09         25.0000        1                 
 19                  0.3500           0.3498         4.276e-09        
                   9.518e-09         25.0000        1                 
 20                  0.3500           0.3499         4.309e-09        
                   1.242e-08         25.0000        1                 
 21                  0.3499           0.3499         2.972e-09        
                   9.325e-09         25.0000        1                 
 22                  0.3500           0.3499         4.666e-09        
                   1.107e-08         25.0000        1                 
 23                1.289e-04        5.268e-05          failed         
                     failed          25.0000        1                 
 24                  0.3499           0.3498         2.789e-09        
                   8.230e-09         25.0000        1                 
 25                  0.3500           0.3497         5.725e-09        
                   7.503e-09         25.0000        1                 
 26                  0.3499           0.3499         3.469e-09        
                   1.035e-08         25.0000        1                 
 27                1.185e-04        4.454e-05          failed         
                     failed          25.0000        1                 
 28                  0.3497           0.3498         1.561e-09        
                   5.051e-09         25.0000        1                 
 29                  0.3500           0.3497         4.766e-09        
                   7.411e-09         25.0000        1                 
 30                  0.3498           0.3496         1.804e-09        
                   3.985e-09         25.0000        1                 
 31                  0.3499           0.3498         3.188e-09        
                   6.913e-09         25.0000        1                 
 32                  0.3499           0.3499         4.171e-09        
                   1.458e-08         25.0000        1                 
 33                  0.3499           0.3499         3.604e-09        
                   1.142e-08         25.0000        1                 
 34                7.606e-05        7.207e-05          failed         
                     failed          25.0000        1                 
 35                  0.3499           0.3497         3.181e-09        
                   6.818e-09         25.0000        1                 
 36                  0.3499           0.3499         2.495e-09        
                   8.326e-09         25.0000        1                 
 37                  0.3500           0.3498         4.342e-09        
                   9.979e-09         25.0000        1                 
 38                  0.3498           0.3500         2.433e-09        
                   1.230e-08         25.0000        1                 
 39                  0.3499           0.3499         3.065e-09        
                   9.285e-09         25.0000        1                 
 40                7.746e-05        5.347e-05          failed         
                     failed          25.0000        1                 
 41                  0.3498           0.3500         3.288e-09        
                   1.933e-08         25.0000        1                 
 42                  0.3500           0.3499         4.693e-09        
                   1.278e-08         25.0000        1                 
 43                  0.3499           0.3499         3.530e-09        
                   9.217e-09         25.0000        1                 
 44                  0.3499           0.3498         2.081e-09        
                   6.895e-09         25.0000        1                 
 45                  0.3500           0.3499         5.650e-09        
                   1.449e-08         25.0000        1                 
 46                  0.3500           0.3497         4.708e-09        
                   7.977e-09         25.0000        1                 
 47                  0.3500           0.3499         4.772e-09        
                   1.104e-08         25.0000        1                 
 48                  0.3500           0.3496         4.710e-09        
                   6.626e-09         25.0000        1                 
 49                  0.3499           0.3499         3.627e-09        
                   1.448e-08         25.0000        1                 
 50                  0.3499           0.3498         2.938e-09        
                   7.503e-09         25.0000        1                 
