$DATA1 SOURCE='HSPICE' VERSION='F-2011.09 64-BIT'
.TITLE '* include model and subckts'
 index            write0           t_rwlend         v_read0           
                  delay_write0     delay_read0      temper            
                  alter#            
 1                 4.985e-05        8.258e-08        3.647e-04        
                   1.660e-09        9.632e-09         25.0000         
                  1                 
 2                 3.865e-05        8.187e-08        1.447e-04        
                   1.052e-09        5.687e-09         25.0000         
                  1                 
 3                 1.204e-04        8.404e-08        3.325e-05        
                   3.794e-09        1.949e-08         25.0000         
                  1                 
 4                 3.575e-05        8.458e-08          0.3499         
                   4.057e-09        3.439e-08         25.0000         
                  1                 
 5                 4.415e-05        8.172e-08        1.239e-04        
                   8.800e-10        4.421e-09         25.0000         
                  1                 
 6                 3.631e-05        8.306e-08        4.200e-04        
                   2.108e-09        1.352e-08         25.0000         
                  1                 
 7                 2.908e-05        8.183e-08        1.195e-04        
                   9.615e-10        5.060e-09         25.0000         
                  1                 
 8                 1.312e-05        8.254e-08        2.060e-03        
                   1.817e-09        1.283e-08         25.0000         
                  1                 
 9                 1.765e-05        8.263e-08        1.332e-03        
                   1.812e-09        1.222e-08         25.0000         
                  1                 
 10                7.027e-05        8.340e-08        1.136e-04        
                   2.689e-09        1.603e-08         25.0000         
                  1                 
 11                1.198e-05        8.179e-08        5.509e-04        
                   1.076e-09        6.362e-09         25.0000         
                  1                 
 12                1.207e-04        8.284e-08        4.012e-05        
                     failed           failed          25.0000         
                  1                 
 13                3.467e-05        8.227e-08        1.198e-04        
                   1.425e-09        8.473e-09         25.0000         
                  1                 
 14                5.290e-05        8.187e-08        7.903e-05        
                   9.890e-10        4.882e-09         25.0000         
                  1                 
 15                1.356e-05        8.214e-08        3.468e-04        
                     failed           failed          25.0000         
                  1                 
 16                8.409e-05        8.256e-08        3.197e-04        
                   1.800e-09        1.042e-08         25.0000         
                  1                 
 17                3.562e-05        8.275e-08        6.506e-04        
                   1.815e-09        1.131e-08         25.0000         
                  1                 
 18                2.437e-05        8.207e-08        1.169e-04        
                   1.162e-09        6.300e-09         25.0000         
                  1                 
 19                2.561e-05        8.244e-08        8.250e-05        
                   1.460e-09        8.361e-09         25.0000         
                  1                 
 20                3.356e-05        8.244e-08        1.179e-03        
                   1.636e-09        1.036e-08         25.0000         
                  1                 
 21                1.930e-05        8.194e-08        2.006e-04        
                   1.142e-09        6.773e-09         25.0000         
                  1                 
 22                3.551e-05        8.253e-08        7.817e-04        
                   1.651e-09        1.013e-08         25.0000         
                  1                 
 23                7.992e-05        8.406e-08          0.2133         
                   3.685e-09        2.245e-08         25.0000         
                  1                 
 24                1.937e-05        8.197e-08        1.668e-04        
                   1.103e-09        6.053e-09         25.0000         
                  1                 
 25                8.243e-05        8.262e-08        1.313e-04        
                   1.780e-09        9.847e-09         25.0000         
                  1                 
 26                2.850e-05        8.217e-08        1.782e-04        
                   1.354e-09        8.159e-09         25.0000         
                  1                 
 27                8.170e-05        8.365e-08        5.152e-05        
                   3.017e-09        1.717e-08         25.0000         
                  1                 
 28                1.689e-05        8.145e-08        3.625e-04        
                   7.037e-10        3.642e-09         25.0000         
                  1                 
 29                6.642e-05        8.240e-08        6.566e-05        
                   1.542e-09        8.588e-09         25.0000         
                  1                 
 30                3.302e-05        8.148e-08        1.568e-04        
                   6.879e-10        3.322e-09         25.0000         
                  1                 
 31                3.611e-05        8.197e-08        1.098e-04        
                   1.118e-09        6.174e-09         25.0000         
                  1                 
 32                2.518e-05        8.238e-08        1.296e-03        
                   1.646e-09        1.091e-08         25.0000         
                  1                 
 33                1.948e-05        8.220e-08        1.682e-04        
                   1.357e-09        8.381e-09         25.0000         
                  1                 
 34                3.657e-05        8.412e-08          0.3517         
                   3.421e-09        2.382e-08         25.0000         
                  1                 
 35                2.986e-05        8.198e-08        9.991e-05        
                   1.104e-09        5.996e-09         25.0000         
                  1                 
 36                2.117e-05        8.177e-08        2.952e-04        
                   1.028e-09        5.995e-09         25.0000         
                  1                 
 37                3.367e-05        8.240e-08        7.374e-04        
                   1.517e-09        9.047e-09         25.0000         
                  1                 
 38                8.429e-06        8.192e-08        5.475e-04        
                   1.222e-09        7.932e-09         25.0000         
                  1                 
 39                3.008e-05        8.200e-08        2.140e-04        
                   1.234e-09        7.284e-09         25.0000         
                  1                 
 40                4.209e-05        8.388e-08        7.075e-04        
                   3.119e-09        2.085e-08         25.0000         
                  1                 
 41                8.035e-06        8.232e-08        2.159e-04        
                   1.665e-09        1.136e-08         25.0000         
                  1                 
 42                3.048e-05        8.257e-08        1.042e-03        
                   1.719e-09        1.090e-08         25.0000         
                  1                 
 43                3.332e-05        8.216e-08        1.384e-04        
                   1.321e-09        7.751e-09         25.0000         
                  1                 
 44                1.234e-05        8.163e-08        2.712e-04        
                   8.412e-10        4.670e-09         25.0000         
                  1                 
 45                2.451e-05        8.285e-08        8.399e-04        
                   1.885e-09        1.241e-08         25.0000         
                  1                 
 46                4.984e-05        8.244e-08        6.665e-05        
                   1.520e-09        8.708e-09         25.0000         
                  1                 
 47                3.601e-05        8.258e-08        6.870e-04        
                   1.683e-09        1.025e-08         25.0000         
                  1                 
 48                4.970e-05        8.239e-08        5.469e-05        
                   1.433e-09        7.623e-09         25.0000         
                  1                 
 49                1.308e-05        8.226e-08        1.309e-03        
                   1.433e-09        9.178e-09         25.0000         
                  1                 
 50                3.539e-05        8.197e-08        1.527e-04        
                   1.142e-09        6.303e-09         25.0000         
                  1                 
