$DATA1 SOURCE='HSPICE' VERSION='F-2011.09 64-BIT'
.TITLE '* include model and subckts'
 index            write1           read1            delay_write1      
                  delay_read1      temper           alter#            
 1                   0.3500           0.3498         2.657e-09        
                   7.727e-09         25.0000        1                 
 2                   0.3499           0.3498         1.664e-09        
                   5.974e-09         25.0000        1                 
 3                   0.3500           0.3497         5.342e-09        
                   1.063e-08         25.0000        1                 
 4                   0.3500           0.3499         7.191e-09        
                   2.035e-08         25.0000        1                 
 5                   0.3499           0.3497         1.328e-09        
                   4.368e-09         25.0000        1                 
 6                   0.3500           0.3498         3.521e-09        
                   1.149e-08         25.0000        1                 
 7                   0.3499           0.3497         1.474e-09        
                   5.245e-09         25.0000        1                 
 8                   0.3499           0.3500         3.292e-09        
                   2.095e-08         25.0000        1                 
 9                   0.3500           0.3499         3.220e-09        
                   1.660e-08         25.0000        1                 
 10                  0.3500           0.3498         4.249e-09        
                   1.037e-08         25.0000        1                 
 11                  0.3498           0.3499         1.768e-09        
                   1.084e-08         25.0000        1                 
 12                  0.3500           0.3495         2.885e-09        
                   6.450e-09         25.0000        1                 
 13                  0.3499           0.3499         2.354e-09        
                   8.520e-09         25.0000        1                 
 14                  0.3499           0.3495         1.444e-09        
                   4.187e-09         25.0000        1                 
 15                  0.3499           0.3499         2.353e-09        
                   1.299e-08         25.0000        1                 
 16                  0.3500           0.3498         2.885e-09        
                   7.930e-09         25.0000        1                 
 17                  0.3500           0.3499         3.023e-09        
                   1.048e-08         25.0000        1                 
 18                  0.3499           0.3498         1.807e-09        
                   6.699e-09         25.0000        1                 
 19                  0.3500           0.3498         2.304e-09        
                   8.011e-09         25.0000        1                 
 20                  0.3499           0.3499         2.825e-09        
                   1.111e-08         25.0000        1                 
 21                  0.3499           0.3499         1.892e-09        
                   8.383e-09         25.0000        1                 
 22                  0.3500           0.3499         2.735e-09        
                   9.592e-09         25.0000        1                 
 23                  0.3500           0.3498         5.875e-09        
                   1.378e-08         25.0000        1                 
 24                  0.3499           0.3498         1.742e-09        
                   7.402e-09         25.0000        1                 
 25                  0.3500           0.3497         2.743e-09        
                   6.973e-09         25.0000        1                 
 26                  0.3499           0.3499         2.276e-09        
                   9.410e-09         25.0000        1                 
 27                  0.3500           0.3498         4.569e-09        
                   1.051e-08         25.0000        1                 
 28                  0.3497           0.3498         1.080e-09        
                   5.185e-09         25.0000        1                 
 29                  0.3500           0.3497         2.402e-09        
                   6.642e-09         25.0000        1                 
 30                  0.3498           0.3496         1.011e-09        
                   3.589e-09         25.0000        1                 
 31                  0.3499           0.3498         1.785e-09        
                   6.099e-09         25.0000        1                 
 32                  0.3499           0.3499         2.930e-09        
                   1.330e-08         25.0000        1                 
 33                  0.3499           0.3499         2.293e-09        
                   1.002e-08         25.0000        1                 
 34                  0.3500           0.3499         5.978e-09        
                   1.773e-08         25.0000        1                 
 35                  0.3499           0.3497         1.720e-09        
                   5.910e-09         25.0000        1                 
 36                  0.3499           0.3499         1.705e-09        
                   7.930e-09         25.0000        1                 
 37                  0.3500           0.3498         2.475e-09        
                   8.615e-09         25.0000        1                 
 38                  0.3498           0.3500         2.091e-09        
                   1.545e-08         25.0000        1                 
 39                  0.3499           0.3499         2.069e-09        
                   8.706e-09         25.0000        1                 
 40                  0.3500           0.3498         5.273e-09        
                   1.418e-08         25.0000        1                 
 41                  0.3498           0.3500         2.956e-09        
                   2.555e-08         25.0000        1                 
 42                  0.3500           0.3499         2.924e-09        
                   1.107e-08         25.0000        1                 
 43                  0.3499           0.3499         2.182e-09        
                   8.199e-09         25.0000        1                 
 44                  0.3498           0.3498         1.334e-09        
                   6.394e-09         25.0000        1                 
 45                  0.3500           0.3499         3.212e-09        
                   1.190e-08         25.0000        1                 
 46                  0.3500           0.3497         2.388e-09        
                   6.985e-09         25.0000        1                 
 47                  0.3500           0.3499         2.770e-09        
                   9.625e-09         25.0000        1                 
 48                  0.3500           0.3496         2.150e-09        
                   5.918e-09         25.0000        1                 
