$DATA1 SOURCE='HSPICE' VERSION='F-2011.09 64-BIT'
.TITLE '* include model and subckts'
 index            delay_write0     delay_read0      temper            
                  alter#            
 1                 4.366e-09       -2.366e-08         25.0000         
                  1                 
 2                 2.212e-09        8.459e-09         25.0000         
                  1                 
 3                   failed           failed          25.0000         
                  1                 
 4                   failed           failed          25.0000         
                  1                 
 5                 2.010e-09        6.820e-09         25.0000         
                  1                 
 6                 5.112e-09          failed          25.0000         
                  1                 
 7                 2.145e-09        7.723e-09         25.0000         
                  1                 
 8                 2.700e-09        1.690e-08         25.0000         
                  1                 
 9                 3.058e-09        1.696e-08         25.0000         
                  1                 
 10                  failed           failed          25.0000         
                  1                 
 11                1.452e-09       -3.131e-08         25.0000         
                  1                 
 12                  failed           failed          25.0000         
                  1                 
 13                3.075e-09        1.274e-08         25.0000         
                  1                 
 14                2.655e-09        8.123e-09         25.0000         
                  1                 
 15                2.197e-09        1.129e-08         25.0000         
                  1                 
 16                4.532e-09       -2.300e-08         25.0000         
                  1                 
 17                4.086e-09        1.726e-08         25.0000         
                  1                 
 18                2.505e-09        9.617e-09         25.0000         
                  1                 
 19                3.474e-09        1.325e-08         25.0000         
                  1                 
 20                3.232e-09        1.510e-08         25.0000         
                  1                 
 21                2.149e-09        9.434e-09         25.0000         
                  1                 
 22                3.691e-09        1.544e-08         25.0000         
                  1                 
 23                  failed           failed          25.0000         
                  1                 
 24                2.106e-09        8.769e-09         25.0000         
                  1                 
 25                5.003e-09        1.590e-08         25.0000         
                  1                 
 26                2.598e-09        1.159e-08         25.0000         
                  1                 
 27                  failed           failed          25.0000         
                  1                 
 28                1.081e-09       -3.497e-08         25.0000         
                  1                 
 29                4.161e-09       -2.544e-08         25.0000         
                  1                 
 30                1.453e-09        5.024e-09         25.0000         
                  1                 
 31                2.602e-09        9.580e-09         25.0000         
                  1                 
 32                2.975e-09        1.535e-08         25.0000         
                  1                 
 33                2.672e-09        1.211e-08         25.0000         
                  1                 
 34                  failed           failed          25.0000         
                  1                 
 35                2.599e-09        9.427e-09         25.0000         
                  1                 
 36                1.773e-09        8.008e-09         25.0000         
                  1                 
 37                3.470e-09        1.386e-08         25.0000         
                  1                 
 38                1.442e-09        9.696e-09         25.0000         
                  1                 
 39                2.248e-09        1.004e-08         25.0000         
                  1                 
 40                  failed           failed          25.0000         
                  1                 
 41                1.902e-09          failed          25.0000         
                  1                 
 42                3.630e-09        1.637e-08         25.0000         
                  1                 
 43                2.748e-09        1.144e-08         25.0000         
                  1                 
 44                1.455e-09        6.219e-09         25.0000         
                  1                 
 45                4.381e-09        1.931e-08         25.0000         
                  1                 
 46                4.036e-09        1.398e-08         25.0000         
                  1                 
 47                3.808e-09        1.572e-08         25.0000         
                  1                 
 48                4.143e-09        1.290e-08         25.0000         
                  1                 
 49                2.490e-09        1.263e-08         25.0000         
                  1                 
 50                2.314e-09        9.261e-09         25.0000         
                  1                 
