$DATA1 SOURCE='HSPICE' VERSION='F-2011.09 64-BIT'
.TITLE '* include model and subckts'
 index            write0           t_rwlend         v_read0           
                  delay_write0     delay_read0      temper            
                  alter#            
 1                 5.058e-05        7.423e-08        7.156e-05        
                   1.667e-09        1.036e-08         25.0000         
                  1                 
 2                 3.915e-05        7.302e-08        1.463e-04        
                   1.048e-09        6.225e-09         25.0000         
                  1                 
 3                 1.377e-04        7.669e-08        1.070e-03        
                   3.801e-09        2.155e-08         25.0000         
                  1                 
 4                -2.501e-05        7.942e-08          0.3499         
                   4.078e-09          failed          25.0000         
                  1                 
 5                 4.466e-05        7.251e-08        1.304e-04        
                   8.785e-10        4.786e-09         25.0000         
                  1                 
 6                 3.958e-05        7.544e-08        7.730e-05        
                   2.118e-09        1.462e-08         25.0000         
                  1                 
 7                 2.949e-05        7.277e-08        1.243e-04        
                   9.667e-10        5.466e-09         25.0000         
                  1                 
 8                 1.332e-05        7.598e-08        2.083e-04        
                   1.813e-09        1.410e-08         25.0000         
                  1                 
 9                 1.860e-05        7.556e-08        3.694e-04        
                   1.830e-09        1.352e-08         25.0000         
                  1                 
 10                8.471e-05        7.588e-08        2.852e-05        
                   2.679e-09        1.748e-08         25.0000         
                  1                 
 11                1.227e-05        7.362e-08        3.460e-04        
                   1.069e-09        6.683e-09         25.0000         
                  1                 
 12                1.221e-04        7.421e-08        4.284e-05        
                     failed           failed          25.0000         
                  1                 
 13                3.529e-05        7.402e-08        1.205e-04        
                   1.423e-09        9.362e-09         25.0000         
                  1                 
 14                5.357e-05        7.263e-08        8.554e-05        
                   9.908e-10        5.232e-09         25.0000         
                  1                 
 15                1.379e-05        7.441e-08        2.211e-04        
                   1.376e-09        9.520e-09         25.0000         
                  1                 
 16                8.582e-05        7.445e-08        7.995e-05        
                   1.798e-09        1.141e-08         25.0000         
                  1                 
 17                3.651e-05        7.489e-08        9.934e-05        
                   1.815e-09        1.247e-08         25.0000         
                  1                 
 18                2.473e-05        7.326e-08        1.212e-04        
                   1.156e-09        6.857e-09         25.0000         
                  1                 
 19                2.590e-05        7.392e-08        8.776e-05        
                   1.456e-09        9.090e-09         25.0000         
                  1                 
 20                3.424e-05        7.472e-08        1.448e-04        
                   1.646e-09        1.164e-08         25.0000         
                  1                 
 21                1.966e-05        7.355e-08        1.651e-04        
                   1.150e-09        7.420e-09         25.0000         
                  1                 
 22                3.604e-05        7.451e-08        1.047e-04        
                   1.653e-09        1.120e-08         25.0000         
                  1                 
 23                1.024e-04        7.756e-08          0.3498         
                   3.672e-09        2.543e-08         25.0000         
                  1                 
 24                1.967e-05        7.327e-08        1.596e-04        
                   1.086e-09        6.686e-09         25.0000         
                  1                 
 25                8.343e-05        7.420e-08        5.871e-05        
                   1.778e-09        1.074e-08         25.0000         
                  1                 
 26                2.909e-05        7.400e-08        1.637e-04        
                   1.361e-09        9.053e-09         25.0000         
                  1                 
 27                9.834e-05        7.620e-08        1.257e-05        
                   3.010e-09        1.879e-08         25.0000         
                  1                 
 28                1.697e-05        7.233e-08        2.946e-04        
                   6.963e-10        3.799e-09         25.0000         
                  1                 
 29                6.750e-05        7.387e-08        7.053e-05        
                   1.537e-09        9.265e-09         25.0000         
                  1                 
 30                3.324e-05        7.208e-08        1.598e-04        
                   6.889e-10        3.560e-09         25.0000         
                  1                 
 31                3.705e-05        7.319e-08        1.137e-04        
                   1.124e-09        6.767e-09         25.0000         
                  1                 
 32                2.551e-05        7.501e-08        1.747e-04        
                   1.659e-09        1.216e-08         25.0000         
                  1                 
 33                1.983e-05        7.409e-08        1.441e-04        
                   1.369e-09        9.176e-09         25.0000         
                  1                 
 34                1.139e-04        7.822e-08          0.3499         
                   3.415e-09        2.679e-08         25.0000         
                  1                 
 35                3.042e-05        7.310e-08        1.046e-04        
                   1.109e-09        6.508e-09         25.0000         
                  1                 
 36                2.160e-05        7.329e-08        2.215e-04        
                   1.026e-09        6.540e-09         25.0000         
                  1                 
 37                3.412e-05        7.415e-08        1.011e-04        
                   1.517e-09        9.955e-09         25.0000         
                  1                 
 38                8.601e-06        7.436e-08        4.268e-04        
                   1.225e-09        8.364e-09         25.0000         
                  1                 
 39                3.064e-05        7.371e-08        1.895e-04        
                   1.239e-09        8.015e-09         25.0000         
                  1                 
 40                6.098e-05        7.722e-08          0.3513         
                   3.128e-09        2.280e-08         25.0000         
                  1                 
 41                8.667e-06        7.591e-08        3.830e-04        
                   1.669e-09        1.211e-08         25.0000         
                  1                 
 42                3.106e-05        7.480e-08        1.171e-04        
                   1.725e-09        1.211e-08         25.0000         
                  1                 
 43                3.381e-05        7.380e-08        1.370e-04        
                   1.331e-09        8.579e-09         25.0000         
                  1                 
 44                1.260e-05        7.277e-08        2.006e-04        
                   8.397e-10        5.030e-09         25.0000         
                  1                 
 45                2.542e-05        7.518e-08        8.657e-05        
                   1.899e-09        1.367e-08         25.0000         
                  1                 
 46                5.042e-05        7.390e-08        7.172e-05        
                   1.526e-09        9.417e-09         25.0000         
                  1                 
 47                3.653e-05        7.453e-08        9.950e-05        
                   1.681e-09        1.129e-08         25.0000         
                  1                 
 48                5.028e-05        7.355e-08        5.942e-05        
                   1.432e-09        8.180e-09         25.0000         
                  1                 
 49                1.327e-05        7.455e-08        1.760e-04        
                   1.426e-09        1.012e-08         25.0000         
                  1                 
 50                3.589e-05        7.328e-08        1.535e-04        
                   1.136e-09        6.939e-09         25.0000         
                  1                 
 51                6.166e-05        7.348e-08        6.041e-05        
                   1.418e-09        7.946e-09         25.0000         
                  1                 
 52                3.152e-05        7.443e-08        1.386e-04        
                   1.547e-09        1.064e-08         25.0000         
                  1                 
 53                2.356e-05        7.563e-08        5.481e-05        
                   2.045e-09        1.535e-08         25.0000         
                  1                 
 54                4.711e-05        7.467e-08        7.378e-05        
                   1.847e-09        1.195e-08         25.0000         
                  1                 
 55                2.211e-05        7.295e-08        1.734e-04        
                   9.627e-10        5.785e-09         25.0000         
                  1                 
 56                5.732e-05        7.493e-08        9.591e-05        
                   1.879e-09        1.277e-08         25.0000         
                  1                 
 57                1.962e-05        7.289e-08        3.814e-04        
                   8.653e-10        5.144e-09         25.0000         
                  1                 
 58                2.394e-05        7.436e-08        1.127e-04        
                   1.515e-09        1.038e-08         25.0000         
                  1                 
 59                1.609e-05        7.665e-08        1.971e-04        
                   2.051e-09        1.627e-08         25.0000         
                  1                 
 60                2.249e-05        7.346e-08        1.779e-04        
                   1.126e-09        7.194e-09         25.0000         
                  1                 
 61                4.455e-05        7.576e-08        4.539e-05        
                   2.266e-09        1.615e-08         25.0000         
                  1                 
 62                2.335e-05        7.342e-08        2.521e-04        
                   1.110e-09        6.872e-09         25.0000         
                  1                 
 63                1.585e-05        7.423e-08        2.110e-04        
                   1.341e-09        9.154e-09         25.0000         
                  1                 
 64                3.355e-05        7.246e-08        2.362e-04        
                   7.990e-10        4.456e-09         25.0000         
                  1                 
 65                2.018e-05        7.495e-08        1.309e-04        
                   1.677e-09        1.219e-08         25.0000         
                  1                 
 66                1.508e-05        7.407e-08        2.463e-04        
                   1.279e-09        8.547e-09         25.0000         
                  1                 
 67                6.024e-05        7.298e-08        1.693e-04        
                   1.023e-09        6.121e-09         25.0000         
                  1                 
 68                1.749e-05        7.567e-08       -3.888e-05        
                   1.854e-09        1.384e-08         25.0000         
                  1                 
 69                3.147e-05        7.369e-08        1.198e-04        
                   1.323e-09        8.280e-09         25.0000         
                  1                 
 70                6.684e-05        7.618e-08        2.773e-05        
                   2.614e-09        1.798e-08         25.0000         
                  1                 
 71                2.425e-05        7.662e-08        1.059e-04        
                   2.279e-09        1.817e-08         25.0000         
                  1                 
 72                6.165e-05        7.615e-08        3.142e-05        
                   2.526e-09        1.799e-08         25.0000         
                  1                 
 73                1.952e-05        7.529e-08        2.379e-04        
                   1.699e-09        1.250e-08         25.0000         
                  1                 
 74                5.158e-05        7.701e-08        8.493e-02        
                   2.811e-09        2.109e-08         25.0000         
                  1                 
 75                2.777e-05        7.375e-08        1.452e-04        
                   1.282e-09        8.316e-09         25.0000         
                  1                 
 76                6.191e-06        7.489e-08        3.663e-04        
                   1.287e-09        9.580e-09         25.0000         
                  1                 
 77                3.051e-05        7.625e-08        5.332e-05        
                   2.306e-09        1.727e-08         25.0000         
                  1                 
 78                1.098e-04        7.446e-08        4.728e-05        
                   2.078e-09        1.189e-08         25.0000         
                  1                 
 79                2.176e-05        7.297e-08        1.803e-04        
                   9.637e-10        5.807e-09         25.0000         
                  1                 
 80                2.998e-05        7.379e-08        9.977e-05        
                   1.346e-09        8.656e-09         25.0000         
                  1                 
 81                3.340e-05        7.553e-08        1.167e-04        
                   1.969e-09        1.451e-08         25.0000         
                  1                 
 82                6.030e-05        7.554e-08        4.039e-05        
                   2.220e-09        1.547e-08         25.0000         
                  1                 
 83                2.288e-05        7.660e-08        1.171e-04        
                   2.250e-09        1.814e-08         25.0000         
                  1                 
 84                2.093e-05        7.472e-08        1.112e-04        
                   1.633e-09        1.157e-08         25.0000         
                  1                 
 85                3.326e-05        7.593e-08        8.053e-05        
                   2.178e-09        1.627e-08         25.0000         
                  1                 
 86                1.595e-05        7.579e-08        1.316e-04        
                   1.872e-09        1.454e-08         25.0000         
                  1                 
 87                3.171e-05        7.314e-08        1.104e-04        
                   1.115e-09        6.592e-09         25.0000         
                  1                 
 88                1.616e-05        7.551e-08        3.725e-04        
                   1.768e-09        1.356e-08         25.0000         
                  1                 
 89                3.156e-05        7.641e-08        6.806e-05        
                   2.327e-09        1.807e-08         25.0000         
                  1                 
 90                1.272e-05        7.316e-08        2.600e-04        
                   9.678e-10        5.676e-09         25.0000         
                  1                 
 91                3.405e-05        7.398e-08        9.207e-05        
                   1.461e-09        9.426e-09         25.0000         
                  1                 
 92                8.117e-05        7.419e-08        5.991e-05        
                   1.804e-09        1.038e-08         25.0000         
                  1                 
 93                8.060e-05        7.795e-08          0.3499         
                   3.609e-09        2.703e-08         25.0000         
                  1                 
 94                5.329e-05        7.382e-08        8.569e-05        
                   1.466e-09        9.063e-09         25.0000         
                  1                 
 95                6.634e-05        7.360e-08        8.737e-05        
                   1.360e-09        8.404e-09         25.0000         
                  1                 
 96                5.966e-05        7.346e-08        9.244e-05        
                   1.281e-09        7.871e-09         25.0000         
                  1                 
 97                1.026e-05        7.458e-08        2.848e-04        
                   1.335e-09        9.082e-09         25.0000         
                  1                 
 98                2.953e-05        7.405e-08        9.673e-05        
                   1.447e-09        9.587e-09         25.0000         
                  1                 
 99                8.847e-05        7.699e-08          0.3316         
                   3.350e-09        2.214e-08         25.0000         
                  1                 
 100               4.168e-05        7.805e-08          0.2326         
                   2.355e-09        1.975e-08         25.0000         
                  1                 
