$DATA1 SOURCE='HSPICE' VERSION='F-2011.09 64-BIT'
.TITLE '* include model and subckts'
 index            delay_write0     delay_read0      temper            
                  alter#            
 1                   failed         4.137e-09         25.0000         
                  1                 
 2                   failed         2.752e-09         25.0000         
                  1                 
 3                   failed         7.349e-09         25.0000         
                  1                 
 4                   failed         1.134e-08         25.0000         
                  1                 
 5                   failed         2.138e-09         25.0000         
                  1                 
 6                   failed         5.743e-09         25.0000         
                  1                 
 7                   failed         2.467e-09         25.0000         
                  1                 
 8                   failed         7.503e-09         25.0000         
                  1                 
 9                   failed         6.242e-09         25.0000         
                  1                 
 10                  failed         6.231e-09         25.0000         
                  1                 
 11                  failed         4.292e-09         25.0000         
                  1                 
 12                  failed           failed          25.0000         
                  1                 
 13                  failed         3.899e-09         25.0000         
                  1                 
 14                  failed         2.265e-09         25.0000         
                  1                 
 15                  failed         5.054e-09         25.0000         
                  1                 
 16                  failed         4.314e-09         25.0000         
                  1                 
 17                  failed         4.981e-09         25.0000         
                  1                 
 18                  failed         3.060e-09         25.0000         
                  1                 
 19                  failed         3.819e-09         25.0000         
                  1                 
 20                  failed         4.819e-09         25.0000         
                  1                 
 21                  failed         3.528e-09         25.0000         
                  1                 
 22                  failed         4.527e-09         25.0000         
                  1                 
 23                  failed         8.468e-09         25.0000         
                  1                 
 24                  failed         3.148e-09         25.0000         
                  1                 
 25                  failed         4.082e-09         25.0000         
                  1                 
 26                  failed         3.973e-09         25.0000         
                  1                 
 27                  failed         6.643e-09         25.0000         
                  1                 
 28                  failed         2.268e-09         25.0000         
                  1                 
 29                  failed         3.648e-09         25.0000         
                  1                 
 30                  failed         1.711e-09         25.0000         
                  1                 
 31                  failed         2.916e-09         25.0000         
                  1                 
 32                  failed         5.383e-09         25.0000         
                  1                 
 33                  failed         4.178e-09         25.0000         
                  1                 
 34                  failed         9.412e-09         25.0000         
                  1                 
 35                  failed         2.849e-09         25.0000         
                  1                 
 36                  failed         3.349e-09         25.0000         
                  1                 
 37                  failed         4.083e-09         25.0000         
                  1                 
 38                  failed         5.982e-09         25.0000         
                  1                 
 39                  failed         3.644e-09         25.0000         
                  1                 
 40                  failed         8.095e-09         25.0000         
                  1                 
 41                  failed         8.554e-09         25.0000         
                  1                 
 42                  failed         4.953e-09         25.0000         
                  1                 
 43                  failed         3.671e-09         25.0000         
                  1                 
 44                  failed         2.805e-09         25.0000         
                  1                 
 45                  failed         5.502e-09         25.0000         
                  1                 
 46                  failed         3.745e-09         25.0000         
                  1                 
 47                  failed         4.536e-09         25.0000         
                  1                 
 48                  failed         3.359e-09         25.0000         
                  1                 
 49                  failed         5.130e-09         25.0000         
                  1                 
 50                  failed         3.056e-09         25.0000         
                  1                 
 51                  failed         3.260e-09         25.0000         
                  1                 
 52                  failed         4.485e-09         25.0000         
                  1                 
 53                  failed         6.146e-09         25.0000         
                  1                 
 54                  failed         4.702e-09         25.0000         
                  1                 
 55                  failed         2.770e-09         25.0000         
                  1                 
 56                  failed         4.978e-09         25.0000         
                  1                 
 57                  failed         3.094e-09         25.0000         
                  1                 
 58                  failed         4.411e-09         25.0000         
                  1                 
 59                  failed         8.306e-09         25.0000         
                  1                 
 60                  failed         3.419e-09         25.0000         
                  1                 
 61                  failed         6.194e-09         25.0000         
                  1                 
 62                  failed         3.471e-09         25.0000         
                  1                 
 63                  failed         4.655e-09         25.0000         
                  1                 
 64                  failed         2.179e-09         25.0000         
                  1                 
 65                  failed         5.270e-09         25.0000         
                  1                 
 66                  failed         4.560e-09         25.0000         
                  1                 
 67                  failed         2.632e-09         25.0000         
                  1                 
 68                  failed         6.402e-09         25.0000         
                  1                 
 69                  failed         3.542e-09         25.0000         
                  1                 
 70                  failed         6.649e-09         25.0000         
                  1                 
 71                  failed         7.533e-09         25.0000         
                  1                 
 72                  failed         6.624e-09         25.0000         
                  1                 
 73                  failed         6.043e-09         25.0000         
                  1                 
 74                  failed         7.859e-09         25.0000         
                  1                 
 75                  failed         3.662e-09         25.0000         
                  1                 
 76                  failed         7.413e-09         25.0000         
                  1                 
 77                  failed         6.912e-09         25.0000         
                  1                 
 78                  failed         4.432e-09         25.0000         
                  1                 
 79                  failed         2.794e-09         25.0000         
                  1                 
 80                  failed         3.649e-09         25.0000         
                  1                 
 81                  failed         5.911e-09         25.0000         
                  1                 
 82                  failed         5.806e-09         25.0000         
                  1                 
 83                  failed         7.600e-09         25.0000         
                  1                 
 84                  failed         4.903e-09         25.0000         
                  1                 
 85                  failed         6.407e-09         25.0000         
                  1                 
 86                  failed         6.745e-09         25.0000         
                  1                 
 87                  failed         2.883e-09         25.0000         
                  1                 
 88                  failed         6.292e-09         25.0000         
                  1                 
 89                  failed         7.087e-09         25.0000         
                  1                 
 90                  failed         3.412e-09         25.0000         
                  1                 
 91                  failed         3.878e-09         25.0000         
                  1                 
 92                  failed         4.025e-09         25.0000         
                  1                 
 93                  failed         9.156e-09         25.0000         
                  1                 
 94                  failed         3.629e-09         25.0000         
                  1                 
 95                  failed         3.333e-09         25.0000         
                  1                 
 96                  failed         3.181e-09         25.0000         
                  1                 
 97                  failed         5.745e-09         25.0000         
                  1                 
 98                  failed         3.997e-09         25.0000         
                  1                 
 99                  failed         7.669e-09         25.0000         
                  1                 
 100                 failed         1.143e-08         25.0000         
                  1                 
