$DATA1 SOURCE='HSPICE' VERSION='F-2011.09 64-BIT'
.TITLE '* include model and subckts'
 index            write1           read1            delay_write1      
                  delay_read1      temper           alter#            
 1                   0.3500           0.3498         2.521e-09        
                  -2.996e-08         25.0000        1                 
 2                   0.3499           0.3498         1.591e-09        
                   7.551e-09         25.0000        1                 
 3                   0.3500           0.3497         4.835e-09        
                   1.406e-08         25.0000        1                 
 4                   0.3499           0.3499         6.504e-09        
                  -1.388e-08         25.0000        1                 
 5                   0.3499           0.3497         1.271e-09        
                   5.635e-09         25.0000        1                 
 6                   0.3500           0.3498         3.310e-09        
                  -2.596e-08         25.0000        1                 
 7                   0.3499           0.3497         1.409e-09        
                   6.637e-09         25.0000        1                 
 8                   0.3499           0.3499         3.022e-09        
                   2.031e-08         25.0000        1                 
 9                   0.3500           0.3499         2.969e-09        
                   1.733e-08         25.0000        1                 
 10                  0.3500           0.3498         3.990e-09        
                  -2.632e-08         25.0000        1                 
 11                  0.3499           0.3499         1.656e-09        
                  -2.944e-08         25.0000        1                 
 12                  0.3500           0.3495         4.259e-08        
                   8.677e-09         25.0000        1                 
 13                  0.3500           0.3499         2.233e-09        
                   1.065e-08         25.0000        1                 
 14                  0.3500           0.3495         1.372e-09        
                   5.543e-09         25.0000        1                 
 15                  0.3499           0.3499         2.196e-09        
                   1.350e-08         25.0000        1                 
 16                  0.3500           0.3498         2.778e-09        
                  -2.942e-08         25.0000        1                 
 17                  0.3500           0.3499         2.869e-09        
                   1.281e-08         25.0000        1                 
 18                  0.3500           0.3498         1.716e-09        
                   8.235e-09         25.0000        1                 
 19                  0.3500           0.3498         2.171e-09        
                   9.956e-09         25.0000        1                 
 20                  0.3500           0.3499         2.651e-09        
                   1.305e-08         25.0000        1                 
 21                  0.3499           0.3499         1.783e-09        
                   9.986e-09         25.0000        1                 
 22                  0.3500           0.3499         2.587e-09        
                   1.173e-08         25.0000        1                 
 23                  0.3500           0.3498         5.461e-09        
                   1.789e-08         25.0000        1                 
 24                  0.3499           0.3498         1.651e-09        
                   8.737e-09         25.0000        1                 
 25                  0.3500           0.3497         2.607e-09        
                   9.467e-09         25.0000        1                 
 26                  0.3499           0.3499         2.157e-09        
                   1.120e-08         25.0000        1                 
 27                  0.3500           0.3498         4.299e-09        
                  -2.617e-08         25.0000        1                 
 28                  0.3498           0.3498         1.021e-09        
                  -3.433e-08         25.0000        1                 
 29                  0.3500           0.3497         2.301e-09        
                  -3.113e-08         25.0000        1                 
 30                  0.3499           0.3496         9.609e-10        
                   4.559e-09         25.0000        1                 
 31                  0.3499           0.3498         1.697e-09        
                   7.870e-09         25.0000        1                 
 32                  0.3499           0.3499         2.721e-09        
                   1.502e-08         25.0000        1                 
 33                  0.3499           0.3499         2.145e-09        
                   1.170e-08         25.0000        1                 
 34                  0.3500           0.3499         5.502e-09        
                  -1.871e-08         25.0000        1                 
 35                  0.3500           0.3497         1.629e-09        
                   7.592e-09         25.0000        1                 
 36                  0.3499           0.3499         1.615e-09        
                   9.281e-09         25.0000        1                 
 37                  0.3500           0.3498         2.343e-09        
                   1.069e-08         25.0000        1                 
 38                  0.3498           0.3500         1.909e-09        
                   1.314e-08         25.0000        1                 
 39                  0.3499           0.3499         1.955e-09        
                   1.032e-08         25.0000        1                 
 40                  0.3500           0.3498         4.862e-09        
                  -2.223e-08         25.0000        1                 
 41                  0.3499           0.3500         2.662e-09        
                  -1.994e-08         25.0000        1                 
 42                  0.3500           0.3499         2.739e-09        
                   1.336e-08         25.0000        1                 
 43                  0.3499           0.3499         2.077e-09        
                   1.006e-08         25.0000        1                 
 44                  0.3499           0.3498         1.259e-09        
                   7.395e-09         25.0000        1                 
 45                  0.3500           0.3499         2.982e-09        
                   1.423e-08         25.0000        1                 
 46                  0.3500           0.3497         2.290e-09        
                   9.164e-09         25.0000        1                 
 47                  0.3500           0.3499         2.632e-09        
                   1.184e-08         25.0000        1                 
 48                  0.3500           0.3496         2.025e-09        
                   7.783e-09         25.0000        1                 
 49                  0.3499           0.3499         2.296e-09        
                   1.398e-08         25.0000        1                 
 50                  0.3499           0.3498         1.743e-09        
                   8.422e-09         25.0000        1                 
 51                  0.3500           0.3496         2.002e-09        
                  -3.244e-08         25.0000        1                 
 52                  0.3500           0.3499         2.466e-09        
                   1.243e-08         25.0000        1                 
 53                  0.3500           0.3499         3.236e-09        
                   1.606e-08         25.0000        1                 
 54                  0.3500           0.3498         2.843e-09        
                  -2.855e-08         25.0000        1                 
 55                  0.3499           0.3498         1.454e-09        
                   7.743e-09         25.0000        1                 
 56                  0.3500           0.3499         3.004e-09        
                  -2.724e-08         25.0000        1                 
 57                  0.3498           0.3499         1.320e-09        
                   7.739e-09         25.0000        1                 
 58                  0.3500           0.3499         2.387e-09        
                   1.211e-08         25.0000        1                 
 59                  0.3499           0.3499         3.410e-09        
                   2.482e-08         25.0000        1                 
 60                  0.3499           0.3499         1.752e-09        
                   9.648e-09         25.0000        1                 
 61                  0.3500           0.3498         3.596e-09        
                  -2.508e-08         25.0000        1                 
 62                  0.3499           0.3499         1.714e-09        
                   9.609e-09         25.0000        1                 
 63                  0.3499           0.3499         2.146e-09        
                   1.267e-08         25.0000        1                 
 64                  0.3499           0.3498         1.189e-09        
                   5.993e-09         25.0000        1                 
 65                  0.3500           0.3499         2.686e-09        
                   1.473e-08         25.0000        1                 
 66                  0.3499           0.3499         2.010e-09        
                   1.222e-08         25.0000        1                 
 67                  0.3499           0.3498         1.591e-09        
                   7.351e-09         25.0000        1                 
 68                  0.3500           0.3499         3.015e-09        
                   1.770e-08         25.0000        1                 
 69                  0.3500           0.3498         2.025e-09        
                   9.496e-09         25.0000        1                 
 70                  0.3500           0.3498         4.028e-09        
                  -2.525e-08         25.0000        1                 
 71                  0.3500           0.3499         3.737e-09        
                   2.068e-08         25.0000        1                 
 72                  0.3500           0.3498         4.014e-09        
                  -2.449e-08         25.0000        1                 
 73                  0.3499           0.3499         2.798e-09        
                   1.651e-08         25.0000        1                 
 74                  0.3500           0.3499         4.489e-09        
                  -2.141e-08         25.0000        1                 
 75                  0.3499           0.3499         1.997e-09        
                   1.019e-08         25.0000        1                 
 76                  0.3499           0.3500         2.012e-09        
                   1.573e-08         25.0000        1                 
 77                  0.3500           0.3499         3.744e-09        
                  -2.227e-08         25.0000        1                 
 78                  0.3500           0.3496         2.863e-09        
                  -3.052e-08         25.0000        1                 
 79                  0.3499           0.3498         1.460e-09        
                   7.827e-09         25.0000        1                 
 80                  0.3500           0.3498         2.071e-09        
                   9.872e-09         25.0000        1                 
 81                  0.3500           0.3499         3.207e-09        
                   1.595e-08         25.0000        1                 
 82                  0.3500           0.3498         3.543e-09        
                  -2.588e-08         25.0000        1                 
 83                  0.3500           0.3499         3.709e-09        
                   2.129e-08         25.0000        1                 
 84                  0.3500           0.3499         2.576e-09        
                   1.371e-08         25.0000        1                 
 85                  0.3500           0.3499         3.525e-09        
                   1.678e-08         25.0000        1                 
 86                  0.3500           0.3499         3.095e-09        
                   1.875e-08         25.0000        1                 
 87                  0.3499           0.3498         1.656e-09        
                   7.751e-09         25.0000        1                 
 88                  0.3500           0.3499         2.917e-09        
                   1.760e-08         25.0000        1                 
 89                  0.3500           0.3499         3.818e-09        
                   1.853e-08         25.0000        1                 
 90                  0.3499           0.3499         1.461e-09        
                  -3.118e-08         25.0000        1                 
 91                  0.3500           0.3498         2.240e-09        
                   1.013e-08         25.0000        1                 
 92                  0.3500           0.3497         2.594e-09        
                  -3.091e-08         25.0000        1                 
 93                  0.3500           0.3499         5.532e-09        
                  -2.071e-08         25.0000        1                 
 94                  0.3500           0.3498         2.228e-09        
                   9.071e-09         25.0000        1                 
 95                  0.3500           0.3497         2.089e-09        
                   8.587e-09         25.0000        1                 
 96                  0.3500           0.3497         1.957e-09        
                   8.331e-09         25.0000        1                 
 97                  0.3499           0.3499         2.132e-09        
                  -2.553e-08         25.0000        1                 
 98                  0.3500           0.3498         2.248e-09        
                   1.070e-08         25.0000        1                 
 99                  0.3500           0.3498         4.880e-09        
                  -2.411e-08         25.0000        1                 
 100                 0.3500         6.347e-03        3.921e-09        
                     failed          25.0000        1                 
