$DATA1 SOURCE='HSPICE' VERSION='F-2011.09 64-BIT'
.TITLE '* include model and subckts'
 index            write1           read1            delay_write1      
                  delay_read1      temper           alter#            
 1                 9.855e-05        6.640e-05        2.517e-09        
                  -6.995e-08         25.0000        1                 
 2                 9.636e-05        1.368e-04        1.593e-09        
                   7.522e-09         25.0000        1                 
 3                 2.071e-04        3.293e-05        4.883e-09        
                   1.442e-08         25.0000        1                 
 4                 1.102e-04        5.833e-05        6.500e-09        
                  -5.541e-08         25.0000        1                 
 5                 1.028e-04        1.214e-04        1.272e-09        
                   5.634e-09         25.0000        1                 
 6                 7.646e-05        7.049e-05        3.306e-09        
                  -6.598e-08         25.0000        1                 
 7                 7.684e-05        1.150e-04        1.408e-09        
                   6.638e-09         25.0000        1                 
 8                 5.065e-05        2.318e-04        3.017e-09        
                   2.004e-08         25.0000        1                 
 9                 5.551e-05        1.762e-04        2.968e-09        
                   1.752e-08         25.0000        1                 
 10                1.435e-04        4.781e-05        3.981e-09        
                  -6.625e-08         25.0000        1                 
 11                6.052e-05        3.309e-04        1.656e-09        
                  -6.952e-08         25.0000        1                 
 12                1.825e-04        4.012e-05        8.264e-08        
                   8.648e-09         25.0000        1                 
 13                8.475e-05        1.122e-04        2.232e-09        
                   1.067e-08         25.0000        1                 
 14                1.083e-04        7.874e-05        1.378e-09        
                   5.542e-09         25.0000        1                 
 15                5.306e-05        2.079e-04        2.187e-09        
                   1.369e-08         25.0000        1                 
 16                1.527e-04        7.469e-05        2.782e-09        
                  -6.945e-08         25.0000        1                 
 17                7.910e-05        9.282e-05        2.867e-09        
                   1.277e-08         25.0000        1                 
 18                6.427e-05        1.124e-04        1.714e-09        
                   8.188e-09         25.0000        1                 
 19                5.990e-05        8.105e-05        2.167e-09        
                   9.846e-09         25.0000        1                 
 20                8.556e-05        1.358e-04        2.651e-09        
                   1.321e-08         25.0000        1                 
 21                6.576e-05        1.539e-04        1.781e-09        
                   9.965e-09         25.0000        1                 
 22                8.134e-05        9.748e-05        2.596e-09        
                   1.190e-08         25.0000        1                 
 23                1.661e-04        5.068e-05        5.445e-09        
                   1.812e-08         25.0000        1                 
 24                5.954e-05        1.489e-04        1.656e-09        
                   8.692e-09         25.0000        1                 
 25                1.423e-04        5.445e-05        2.600e-09        
                   9.434e-09         25.0000        1                 
 26                7.929e-05        1.533e-04        2.154e-09        
                   1.122e-08         25.0000        1                 
 27                1.592e-04        4.258e-05        4.252e-09        
                  -6.614e-08         25.0000        1                 
 28                7.697e-05        2.797e-04        1.024e-09        
                  -7.433e-08         25.0000        1                 
 29                1.247e-04        6.548e-05        2.304e-09        
                  -7.112e-08         25.0000        1                 
 30                9.618e-05        1.486e-04        9.608e-10        
                   4.535e-09         25.0000        1                 
 31                8.897e-05        1.054e-04        1.699e-09        
                   7.849e-09         25.0000        1                 
 32                7.649e-05        1.638e-04        2.723e-09        
                   1.533e-08         25.0000        1                 
 33                6.024e-05        1.340e-04        2.144e-09        
                   1.177e-08         25.0000        1                 
 34                1.067e-04        6.969e-05        5.509e-09        
                  -5.858e-08         25.0000        1                 
 35                7.560e-05        9.660e-05        1.633e-09        
                   7.575e-09         25.0000        1                 
 36                7.878e-05        2.084e-04        1.615e-09        
                   9.307e-09         25.0000        1                 
 37                7.826e-05        9.386e-05        2.346e-09        
                   1.076e-08         25.0000        1                 
 38                5.048e-05        4.113e-04        1.909e-09        
                   1.323e-08         25.0000        1                 
 39                8.766e-05        1.784e-04        1.960e-09        
                   1.030e-08         25.0000        1                 
 40                1.080e-04        5.131e-05        4.861e-09        
                  -6.200e-08         25.0000        1                 
 41                4.548e-05        4.148e-04        2.662e-09        
                  -6.041e-08         25.0000        1                 
 42                7.518e-05        1.093e-04        2.733e-09        
                   1.331e-08         25.0000        1                 
 43                8.446e-05        1.281e-04        2.069e-09        
                   1.011e-08         25.0000        1                 
 44                5.721e-05        1.875e-04        1.260e-09        
                   7.377e-09         25.0000        1                 
 45                5.957e-05        8.008e-05        2.983e-09        
                   1.424e-08         25.0000        1                 
 46                9.893e-05        6.647e-05        2.289e-09        
                   9.084e-09         25.0000        1                 
 47                8.056e-05        9.268e-05        2.622e-09        
                   1.181e-08         25.0000        1                 
 48                9.428e-05        5.472e-05        2.025e-09        
                   7.774e-09         25.0000        1                 
 49                4.720e-05        1.642e-04        2.301e-09        
                   1.419e-08         25.0000        1                 
 50                8.928e-05        1.438e-04        1.747e-09        
                   8.377e-09         25.0000        1                 
 51                1.124e-04        5.562e-05        1.998e-09        
                  -7.242e-08         25.0000        1                 
 52                8.072e-05        1.297e-04        2.469e-09        
                   1.241e-08         25.0000        1                 
 53                5.523e-05        7.476e-05        3.243e-09        
                   1.609e-08         25.0000        1                 
 54                9.243e-05        6.878e-05        2.840e-09        
                  -6.860e-08         25.0000        1                 
 55                7.149e-05        1.619e-04        1.461e-09        
                   7.694e-09         25.0000        1                 
 56                1.167e-04        8.968e-05        3.004e-09        
                  -6.715e-08         25.0000        1                 
 57                8.739e-05        3.655e-04        1.331e-09        
                   7.702e-09         25.0000        1                 
 58                6.269e-05        1.044e-04        2.382e-09        
                   1.208e-08         25.0000        1                 
 59                5.174e-05        2.167e-04        3.419e-09        
                   2.228e-08         25.0000        1                 
 60                7.329e-05        1.664e-04        1.751e-09        
                   9.623e-09         25.0000        1                 
 61                8.619e-05        6.137e-05        3.598e-09        
                  -6.501e-08         25.0000        1                 
 62                7.850e-05        2.388e-04        1.715e-09        
                   9.493e-09         25.0000        1                 
 63                5.693e-05        1.984e-04        2.141e-09        
                   1.269e-08         25.0000        1                 
 64                1.012e-04        2.233e-04        1.190e-09        
                   5.995e-09         25.0000        1                 
 65                5.660e-05        1.216e-04        2.687e-09        
                   1.479e-08         25.0000        1                 
 66                5.898e-05        2.327e-04        2.019e-09        
                   1.222e-08         25.0000        1                 
 67                1.372e-04        1.596e-04        1.593e-09        
                   7.356e-09         25.0000        1                 
 68                5.182e-05        1.647e-04        3.019e-09        
                   1.786e-08         25.0000        1                 
 69                7.547e-05        1.116e-04        2.024e-09        
                   9.452e-09         25.0000        1                 
 70                9.962e-05        5.616e-05        4.026e-09        
                  -6.506e-08         25.0000        1                 
 71                5.590e-05        1.189e-04        3.734e-09        
                   2.042e-08         25.0000        1                 
 72                1.126e-04        6.155e-05        4.013e-09        
                  -6.438e-08         25.0000        1                 
 73                6.667e-05        2.226e-04        2.788e-09        
                   1.667e-08         25.0000        1                 
 74                8.790e-05        6.933e-05        4.495e-09        
                  -6.126e-08         25.0000        1                 
 75                7.600e-05        1.354e-04        1.996e-09        
                   1.024e-08         25.0000        1                 
 76                3.402e-05        3.537e-04        2.014e-09        
                   1.568e-08         25.0000        1                 
 77                6.896e-05        8.531e-05        3.743e-09        
                  -6.222e-08         25.0000        1                 
 78                1.718e-04        4.389e-05        2.871e-09        
                  -7.045e-08         25.0000        1                 
 79                7.222e-05        1.686e-04        1.460e-09        
                   7.814e-09         25.0000        1                 
 80                7.438e-05        9.220e-05        2.068e-09        
                   9.847e-09         25.0000        1                 
 81                8.084e-05        1.368e-04        3.196e-09        
                   1.602e-08         25.0000        1                 
 82                1.162e-04        7.067e-05        3.534e-09        
                  -6.581e-08         25.0000        1                 
 83                5.699e-05        1.237e-04        3.709e-09        
                   2.095e-08         25.0000        1                 
 84                5.636e-05        1.028e-04        2.578e-09        
                   1.358e-08         25.0000        1                 
 85                7.492e-05        1.038e-04        3.526e-09        
                   1.685e-08         25.0000        1                 
 86                5.102e-05        1.547e-04        3.094e-09        
                   1.881e-08         25.0000        1                 
 87                7.834e-05        1.019e-04        1.658e-09        
                   7.681e-09         25.0000        1                 
 88                5.179e-05        1.506e-04        2.912e-09        
                   1.768e-08         25.0000        1                 
 89                7.392e-05        1.114e-04        3.818e-09        
                   1.866e-08         25.0000        1                 
 90                5.695e-05        2.458e-04        1.459e-09        
                  -7.122e-08         25.0000        1                 
 91                7.809e-05        8.497e-05        2.246e-09        
                   1.015e-08         25.0000        1                 
 92                1.340e-04        5.585e-05        2.597e-09        
                  -7.094e-08         25.0000        1                 
 93                1.158e-04        4.962e-05        5.530e-09        
                  -6.033e-08         25.0000        1                 
 94                1.045e-04        7.966e-05        2.228e-09        
                   9.018e-09         25.0000        1                 
 95                1.294e-04        8.122e-05        2.091e-09        
                   8.525e-09         25.0000        1                 
 96                1.223e-04        8.585e-05        1.959e-09        
                   8.279e-09         25.0000        1                 
 97                4.770e-05        2.703e-04        2.127e-09        
                  -6.566e-08         25.0000        1                 
 98                7.287e-05        8.941e-05        2.249e-09        
                   1.071e-08         25.0000        1                 
 99                1.473e-04        4.478e-05        4.903e-09        
                  -6.384e-08         25.0000        1                 
 100               3.391e-05        2.061e-04        3.913e-09        
                  -5.093e-08         25.0000        1                 
