$DATA1 SOURCE='HSPICE' VERSION='F-2011.09 64-BIT'
.TITLE '* include model and subckts'
 index            write1           read1            delay_write1      
                  delay_read1      temper           alter#            
 1                   0.3500           0.3498         2.760e-09        
                   7.975e-09         25.0000        1                 
 2                   0.3499           0.3498         1.732e-09        
                   6.134e-09         25.0000        1                 
 3                   0.3500           0.3497         5.507e-09        
                   1.091e-08         25.0000        1                 
 4                   0.3500           0.3499         7.409e-09        
                   2.083e-08         25.0000        1                 
 5                   0.3499           0.3497         1.389e-09        
                   4.532e-09         25.0000        1                 
 6                   0.3500           0.3498         3.669e-09        
                   1.165e-08         25.0000        1                 
 7                   0.3499           0.3497         1.552e-09        
                   5.425e-09         25.0000        1                 
 8                   0.3499           0.3500         3.369e-09        
                   2.118e-08         25.0000        1                 
 9                   0.3500           0.3499         3.288e-09        
                   1.690e-08         25.0000        1                 
 10                  0.3500           0.3498         4.401e-09        
                   1.062e-08         25.0000        1                 
 11                  0.3498           0.3499         1.826e-09        
                   1.108e-08         25.0000        1                 
 12                  0.3500           0.3495         2.996e-09        
                   6.645e-09         25.0000        1                 
 13                  0.3499           0.3499         2.428e-09        
                   8.790e-09         25.0000        1                 
 14                  0.3499           0.3495         1.529e-09        
                   4.341e-09         25.0000        1                 
 15                  0.3499           0.3499         2.423e-09        
                   1.350e-08         25.0000        1                 
 16                  0.3500           0.3498         3.019e-09        
                   8.084e-09         25.0000        1                 
 17                  0.3500           0.3499         3.147e-09        
                   1.072e-08         25.0000        1                 
 18                  0.3499           0.3498         1.891e-09        
                   6.915e-09         25.0000        1                 
 19                  0.3500           0.3498         2.409e-09        
                   8.232e-09         25.0000        1                 
 20                  0.3499           0.3499         2.904e-09        
                   1.136e-08         25.0000        1                 
 21                  0.3499           0.3499         1.972e-09        
                   8.629e-09         25.0000        1                 
 22                  0.3500           0.3499         2.847e-09        
                   9.885e-09         25.0000        1                 
 23                  0.3500           0.3498         6.048e-09        
                   1.415e-08         25.0000        1                 
 24                  0.3499           0.3498         1.818e-09        
                   7.666e-09         25.0000        1                 
 25                  0.3500           0.3497         2.843e-09        
                   7.196e-09         25.0000        1                 
 26                  0.3499           0.3499         2.337e-09        
                   9.611e-09         25.0000        1                 
 27                  0.3500           0.3498         4.777e-09        
                   1.080e-08         25.0000        1                 
 28                  0.3497           0.3498         1.117e-09        
                   5.334e-09         25.0000        1                 
 29                  0.3500           0.3497         2.515e-09        
                   6.849e-09         25.0000        1                 
 30                  0.3498           0.3496         1.063e-09        
                   3.712e-09         25.0000        1                 
 31                  0.3499           0.3498         1.868e-09        
                   6.275e-09         25.0000        1                 
 32                  0.3499           0.3499         2.998e-09        
                   1.357e-08         25.0000        1                 
 33                  0.3499           0.3499         2.367e-09        
                   1.019e-08         25.0000        1                 
 34                  0.3500           0.3499         6.172e-09        
                   1.802e-08         25.0000        1                 
 35                  0.3499           0.3497         1.791e-09        
                   6.071e-09         25.0000        1                 
 36                  0.3499           0.3499         1.757e-09        
                   8.134e-09         25.0000        1                 
 37                  0.3500           0.3498         2.575e-09        
                   8.851e-09         25.0000        1                 
 38                  0.3498           0.3500         2.121e-09        
                   1.588e-08         25.0000        1                 
 39                  0.3499           0.3499         2.123e-09        
                   8.897e-09         25.0000        1                 
 40                  0.3500           0.3498         5.458e-09        
                   1.455e-08         25.0000        1                 
 41                  0.3498           0.3500         2.985e-09        
                   2.599e-08         25.0000        1                 
 42                  0.3500           0.3499         3.025e-09        
                   1.138e-08         25.0000        1                 
 43                  0.3499           0.3499         2.258e-09        
                   8.450e-09         25.0000        1                 
 44                  0.3498           0.3498         1.387e-09        
                   6.624e-09         25.0000        1                 
 45                  0.3500           0.3499         3.334e-09        
                   1.225e-08         25.0000        1                 
 46                  0.3500           0.3497         2.509e-09        
                   7.202e-09         25.0000        1                 
 47                  0.3500           0.3499         2.886e-09        
                   9.801e-09         25.0000        1                 
 48                  0.3500           0.3496         2.269e-09        
                   6.102e-09         25.0000        1                 
 49                  0.3499           0.3499         2.539e-09        
                   1.343e-08         25.0000        1                 
