$DATA1 SOURCE='HSPICE' VERSION='F-2011.09 64-BIT'
.TITLE '* include model and subckts'
 index            write0           t_rwlend         v_read0           
                  delay_write0     delay_read0      temper            
                  alter#            
 1                 5.059e-05        7.427e-08        7.147e-05        
                   1.672e-09        1.045e-08         25.0000         
                  1                 
 2                 3.914e-05        7.307e-08        1.462e-04        
                   1.055e-09        6.237e-09         25.0000         
                  1                 
 3                 1.389e-04        7.675e-08       -3.761e-04        
                   3.780e-09        2.167e-08         25.0000         
                  1                 
 4                -2.508e-05        7.951e-08          0.3499         
                   4.051e-09          failed          25.0000         
                  1                 
 5                 4.466e-05        7.254e-08        1.303e-04        
                   8.906e-10        4.840e-09         25.0000         
                  1                 
 6                 3.845e-05        7.548e-08        7.631e-05        
                   2.098e-09        1.456e-08         25.0000         
                  1                 
 7                 2.949e-05        7.280e-08        1.240e-04        
                   9.771e-10        5.524e-09         25.0000         
                  1                 
 8                 1.536e-05        7.604e-08        2.089e-04        
                   1.863e-09        1.420e-08         25.0000         
                  1                 
 9                 1.825e-05        7.561e-08        3.187e-04        
                   1.854e-09        1.363e-08         25.0000         
                  1                 
 10                8.483e-05        7.597e-08        2.827e-05        
                   2.678e-09        1.758e-08         25.0000         
                  1                 
 11                1.231e-05        7.364e-08        3.460e-04        
                   1.099e-09        6.757e-09         25.0000         
                  1                 
 12                1.221e-04        7.427e-08        4.276e-05        
                     failed           failed          25.0000         
                  1                 
 13                3.529e-05        7.406e-08        1.203e-04        
                   1.441e-09        9.454e-09         25.0000         
                  1                 
 14                5.357e-05        7.265e-08        8.545e-05        
                   9.928e-10        5.274e-09         25.0000         
                  1                 
 15                1.375e-05        7.446e-08        2.209e-04        
                   1.391e-09        9.587e-09         25.0000         
                  1                 
 16                8.581e-05        7.451e-08        7.991e-05        
                   1.789e-09        1.152e-08         25.0000         
                  1                 
 17                3.648e-05        7.493e-08        9.930e-05        
                   1.830e-09        1.266e-08         25.0000         
                  1                 
 18                2.473e-05        7.330e-08        1.211e-04        
                   1.161e-09        6.916e-09         25.0000         
                  1                 
 19                2.591e-05        7.399e-08        8.768e-05        
                   1.456e-09        9.130e-09         25.0000         
                  1                 
 20                3.419e-05        7.474e-08        1.447e-04        
                   1.668e-09        1.168e-08         25.0000         
                  1                 
 21                1.966e-05        7.356e-08        1.650e-04        
                   1.154e-09        7.457e-09         25.0000         
                  1                 
 22                3.604e-05        7.454e-08        1.046e-04        
                   1.669e-09        1.123e-08         25.0000         
                  1                 
 23                1.053e-04        7.771e-08          0.3498         
                   3.677e-09        2.560e-08         25.0000         
                  1                 
 24                1.960e-05        7.329e-08        1.595e-04        
                   1.116e-09        6.743e-09         25.0000         
                  1                 
 25                8.340e-05        7.425e-08        5.864e-05        
                   1.775e-09        1.081e-08         25.0000         
                  1                 
 26                2.901e-05        7.406e-08        1.634e-04        
                   1.366e-09        9.133e-09         25.0000         
                  1                 
 27                9.876e-05        7.626e-08        1.163e-05        
                   2.997e-09        1.893e-08         25.0000         
                  1                 
 28                1.704e-05        7.235e-08        2.946e-04        
                   7.213e-10        3.849e-09         25.0000         
                  1                 
 29                6.749e-05        7.390e-08        7.053e-05        
                   1.540e-09        9.292e-09         25.0000         
                  1                 
 30                3.326e-05        7.210e-08        1.597e-04        
                   6.919e-10        3.582e-09         25.0000         
                  1                 
 31                3.705e-05        7.321e-08        1.136e-04        
                   1.134e-09        6.822e-09         25.0000         
                  1                 
 32                2.562e-05        7.506e-08        1.745e-04        
                   1.684e-09        1.229e-08         25.0000         
                  1                 
 33                1.983e-05        7.415e-08        1.439e-04        
                   1.383e-09        9.288e-09         25.0000         
                  1                 
 34                1.040e-04        7.826e-08          0.3499         
                   3.434e-09        2.678e-08         25.0000         
                  1                 
 35                3.043e-05        7.315e-08        1.045e-04        
                   1.108e-09        6.583e-09         25.0000         
                  1                 
 36                2.160e-05        7.332e-08        2.213e-04        
                   1.038e-09        6.604e-09         25.0000         
                  1                 
 37                3.411e-05        7.419e-08        1.010e-04        
                   1.524e-09        9.994e-09         25.0000         
                  1                 
 38                8.703e-06        7.439e-08        4.269e-04        
                   1.265e-09        8.443e-09         25.0000         
                  1                 
 39                3.064e-05        7.374e-08        1.894e-04        
                   1.254e-09        8.132e-09         25.0000         
                  1                 
 40                6.151e-05        7.728e-08          0.3512         
                   3.130e-09        2.285e-08         25.0000         
                  1                 
 41                1.027e-05        7.596e-08        3.846e-04        
                   1.707e-09        1.226e-08         25.0000         
                  1                 
 42                3.103e-05        7.486e-08        1.171e-04        
                   1.730e-09        1.220e-08         25.0000         
                  1                 
 43                3.381e-05        7.385e-08        1.369e-04        
                   1.344e-09        8.657e-09         25.0000         
                  1                 
 44                1.260e-05        7.281e-08        2.005e-04        
                   8.543e-10        5.087e-09         25.0000         
                  1                 
 45                2.541e-05        7.524e-08        8.645e-05        
                   1.901e-09        1.373e-08         25.0000         
                  1                 
 46                5.043e-05        7.397e-08        7.159e-05        
                   1.531e-09        9.509e-09         25.0000         
                  1                 
 47                3.654e-05        7.459e-08        9.922e-05        
                   1.691e-09        1.137e-08         25.0000         
                  1                 
 48                5.028e-05        7.359e-08        5.935e-05        
                   1.428e-09        8.222e-09         25.0000         
                  1                 
 49                1.327e-05        7.458e-08        1.759e-04        
                   1.456e-09        1.024e-08         25.0000         
                  1                 
 50                3.588e-05        7.331e-08        1.534e-04        
                   1.160e-09        6.957e-09         25.0000         
                  1                 
 51                6.168e-05        7.352e-08        6.038e-05        
                   1.409e-09        8.019e-09         25.0000         
                  1                 
 52                3.154e-05        7.447e-08        1.385e-04        
                   1.560e-09        1.069e-08         25.0000         
                  1                 
 53                2.364e-05        7.569e-08        5.591e-05        
                   2.061e-09        1.543e-08         25.0000         
                  1                 
 54                4.715e-05        7.474e-08        7.361e-05        
                   1.848e-09        1.203e-08         25.0000         
                  1                 
 55                2.212e-05        7.298e-08        1.733e-04        
                   9.752e-10        5.822e-09         25.0000         
                  1                 
 56                5.724e-05        7.497e-08        9.587e-05        
                   1.885e-09        1.287e-08         25.0000         
                  1                 
 57                1.962e-05        7.290e-08        3.813e-04        
                   8.728e-10        5.215e-09         25.0000         
                  1                 
 58                2.395e-05        7.438e-08        1.129e-04        
                   1.538e-09        1.041e-08         25.0000         
                  1                 
 59                2.113e-05        7.671e-08        1.982e-04        
                   2.080e-09        1.637e-08         25.0000         
                  1                 
 60                2.249e-05        7.348e-08        1.778e-04        
                   1.132e-09        7.245e-09         25.0000         
                  1                 
 61                4.433e-05        7.581e-08        4.485e-05        
                   2.265e-09        1.630e-08         25.0000         
                  1                 
 62                2.335e-05        7.346e-08        2.520e-04        
                   1.125e-09        6.988e-09         25.0000         
                  1                 
 63                1.586e-05        7.428e-08        2.110e-04        
                   1.379e-09        9.281e-09         25.0000         
                  1                 
 64                3.355e-05        7.248e-08        2.361e-04        
                   8.120e-10        4.516e-09         25.0000         
                  1                 
 65                2.005e-05        7.498e-08        1.308e-04        
                   1.702e-09        1.231e-08         25.0000         
                  1                 
 66                1.509e-05        7.412e-08        2.463e-04        
                   1.292e-09        8.549e-09         25.0000         
                  1                 
 67                6.024e-05        7.301e-08        1.692e-04        
                   1.032e-09        6.170e-09         25.0000         
                  1                 
 68                1.789e-05        7.572e-08        1.322e-04        
                   1.896e-09        1.396e-08         25.0000         
                  1                 
 69                3.145e-05        7.373e-08        1.196e-04        
                   1.325e-09        8.315e-09         25.0000         
                  1                 
 70                6.660e-05        7.626e-08        2.798e-05        
                   2.620e-09        1.805e-08         25.0000         
                  1                 
 71                2.112e-05        7.668e-08        1.070e-04        
                   2.303e-09        1.828e-08         25.0000         
                  1                 
 72                6.035e-05        7.621e-08        3.092e-05        
                   2.530e-09        1.806e-08         25.0000         
                  1                 
 73                2.012e-05        7.533e-08        2.391e-04        
                   1.746e-09        1.261e-08         25.0000         
                  1                 
 74                4.662e-05        7.706e-08          0.1140         
                   2.819e-09        2.121e-08         25.0000         
                  1                 
 75                2.777e-05        7.380e-08        1.450e-04        
                   1.293e-09        8.358e-09         25.0000         
                  1                 
 76                6.586e-06        7.493e-08        3.667e-04        
                   1.336e-09        9.658e-09         25.0000         
                  1                 
 77                3.349e-05        7.632e-08        5.312e-05        
                   2.327e-09        1.733e-08         25.0000         
                  1                 
 78                1.098e-04        7.453e-08        4.723e-05        
                   2.068e-09        1.189e-08         25.0000         
                  1                 
 79                2.177e-05        7.299e-08        1.802e-04        
                   9.843e-10        5.779e-09         25.0000         
                  1                 
 80                2.998e-05        7.381e-08        9.964e-05        
                   1.352e-09        8.711e-09         25.0000         
                  1                 
 81                3.277e-05        7.557e-08        9.076e-05        
                   1.992e-09        1.463e-08         25.0000         
                  1                 
 82                6.022e-05        7.561e-08        4.800e-05        
                   2.229e-09        1.554e-08         25.0000         
                  1                 
 83                2.297e-05        7.666e-08        1.186e-04        
                   2.265e-09        1.822e-08         25.0000         
                  1                 
 84                2.087e-05        7.475e-08        1.111e-04        
                   1.648e-09        1.167e-08         25.0000         
                  1                 
 85                3.260e-05        7.597e-08        7.970e-05        
                   2.188e-09        1.644e-08         25.0000         
                  1                 
 86                1.620e-05        7.584e-08        1.324e-04        
                   1.896e-09        1.463e-08         25.0000         
                  1                 
 87                3.170e-05        7.317e-08        1.103e-04        
                   1.118e-09        6.648e-09         25.0000         
                  1                 
 88                1.600e-05        7.553e-08        3.120e-04        
                   1.790e-09        1.367e-08         25.0000         
                  1                 
 89                2.923e-05        7.646e-08        6.803e-05        
                   2.354e-09        1.817e-08         25.0000         
                  1                 
 90                1.272e-05        7.319e-08        2.597e-04        
                   9.783e-10        5.738e-09         25.0000         
                  1                 
 91                3.401e-05        7.402e-08        9.161e-05        
                   1.467e-09        9.496e-09         25.0000         
                  1                 
