$DATA1 SOURCE='HSPICE' VERSION='F-2011.09 64-BIT'
.TITLE '* include model and subckts'
 index            write1           t_rwlend         v_read1           
                  delay_write1     delay_read1      temper            
                  alter#            
 1                   0.3500         7.427e-08          0.3497         
                   2.760e-09        8.108e-09         25.0000         
                  1                 
 2                   0.3499         7.307e-08          0.3498         
                   1.717e-09        6.220e-09         25.0000         
                  1                 
 3                   0.3500         7.675e-08          0.3497         
                   5.535e-09        1.237e-08         25.0000         
                  1                 
 4                   0.3499         7.947e-08          0.2383         
                   7.380e-09        2.188e-08         25.0000         
                  1                 
 5                   0.3499         7.254e-08          0.3497         
                   1.387e-09        4.566e-09         25.0000         
                  1                 
 6                   0.3500         7.548e-08          0.3498         
                   3.669e-09        1.195e-08         25.0000         
                  1                 
 7                   0.3499         7.281e-08          0.3497         
                   1.542e-09        5.423e-09         25.0000         
                  1                 
 8                   0.3499         7.609e-08        2.637e-04        
                   3.373e-09        2.136e-08         25.0000         
                  1                 
 9                   0.3499         7.562e-08          0.3500         
                   3.305e-09        1.688e-08         25.0000         
                  1                 
 10                  0.3500         7.596e-08          0.3498         
                   4.410e-09        1.139e-08         25.0000         
                  1                 
 11                  0.3498         7.371e-08          0.3499         
                   1.813e-09        1.132e-08         25.0000         
                  1                 
 12                  0.3500         7.426e-08          0.3495         
                   3.019e-09        7.166e-09         25.0000         
                  1                 
 13                  0.3499         7.407e-08          0.3498         
                   2.428e-09        8.878e-09         25.0000         
                  1                 
 14                  0.3499         7.266e-08          0.3495         
                   1.525e-09        4.389e-09         25.0000         
                  1                 
 15                  0.3499         7.450e-08          0.3499         
                   2.423e-09        1.323e-08         25.0000         
                  1                 
 16                  0.3500         7.449e-08          0.3498         
                   2.999e-09        8.636e-09         25.0000         
                  1                 
 17                  0.3500         7.493e-08          0.3499         
                   3.132e-09        1.093e-08         25.0000         
                  1                 
 18                  0.3499         7.331e-08          0.3498         
                   1.885e-09        6.916e-09         25.0000         
                  1                 
 19                  0.3500         7.397e-08          0.3498         
                   2.398e-09        8.269e-09         25.0000         
                  1                 
 20                  0.3499         7.480e-08          0.3499         
                   2.895e-09        1.152e-08         25.0000         
                  1                 
 21                  0.3499         7.357e-08          0.3499         
                   1.959e-09        8.596e-09         25.0000         
                  1                 
 22                  0.3500         7.456e-08          0.3499         
                   2.833e-09        9.996e-09         25.0000         
                  1                 
 23                  0.3500         7.767e-08          0.3499         
                   6.042e-09        1.539e-08         25.0000         
                  1                 
 24                  0.3499         7.332e-08          0.3498         
                   1.813e-09        7.640e-09         25.0000         
                  1                 
 25                  0.3500         7.423e-08          0.3497         
                   2.856e-09        7.630e-09         25.0000         
                  1                 
 26                  0.3499         7.407e-08          0.3499         
                   2.348e-09        9.754e-09         25.0000         
                  1                 
 27                  0.3500         7.622e-08          0.3497         
                   4.780e-09        1.169e-08         25.0000         
                  1                 
 28                  0.3497         7.236e-08          0.3498         
                   1.118e-09        5.353e-09         25.0000         
                  1                 
 29                  0.3500         7.390e-08          0.3497         
                   2.502e-09        7.083e-09         25.0000         
                  1                 
 30                  0.3498         7.210e-08          0.3496         
                   1.060e-09        3.681e-09         25.0000         
                  1                 
 31                  0.3499         7.322e-08          0.3498         
                   1.850e-09        6.339e-09         25.0000         
                  1                 
 32                  0.3499         7.508e-08          0.3499         
                   3.009e-09        1.365e-08         25.0000         
                  1                 
 33                  0.3499         7.414e-08          0.3499         
                   2.381e-09        1.029e-08         25.0000         
                  1                 
 34                  0.3500         7.831e-08          0.3500         
                   6.163e-09        1.891e-08         25.0000         
                  1                 
 35                  0.3499         7.315e-08          0.3497         
                   1.796e-09        6.109e-09         25.0000         
                  1                 
 36                  0.3498         7.335e-08          0.3499         
                   1.759e-09        8.169e-09         25.0000         
                  1                 
 37                  0.3500         7.419e-08          0.3498         
                   2.568e-09        8.967e-09         25.0000         
                  1                 
 38                  0.3498         7.445e-08          0.3500         
                   2.129e-09        1.593e-08         25.0000         
                  1                 
 39                  0.3499         7.377e-08          0.3499         
                   2.129e-09        8.964e-09         25.0000         
                  1                 
 40                  0.3500         7.727e-08          0.3499         
                   5.433e-09        1.519e-08         25.0000         
                  1                 
 41                  0.3498         7.606e-08        4.111e-04        
                   3.003e-09          failed          25.0000         
                  1                 
 42                  0.3500         7.485e-08          0.3499         
                   3.003e-09        1.148e-08         25.0000         
                  1                 
 43                  0.3499         7.384e-08          0.3499         
                   2.248e-09        8.507e-09         25.0000         
                  1                 
 44                  0.3498         7.282e-08          0.3498         
                   1.399e-09        6.579e-09         25.0000         
                  1                 
 45                  0.3500         7.525e-08          0.3499         
                   3.319e-09        1.223e-08         25.0000         
                  1                 
 46                  0.3500         7.395e-08          0.3497         
                   2.496e-09        7.376e-09         25.0000         
                  1                 
 47                  0.3500         7.458e-08          0.3498         
                   2.862e-09        9.953e-09         25.0000         
                  1                 
 48                  0.3500         7.358e-08          0.3496         
                   2.262e-09        6.198e-09         25.0000         
                  1                 
 49                  0.3499         7.460e-08          0.3499         
                   2.544e-09        1.343e-08         25.0000         
                  1                 
 50                  0.3499         7.334e-08          0.3498         
                   1.887e-09        7.086e-09         25.0000         
                  1                 
 51                  0.3500         7.351e-08          0.3496         
                   2.222e-09        5.985e-09         25.0000         
                  1                 
 52                  0.3499         7.450e-08          0.3499         
                   2.694e-09        1.066e-08         25.0000         
                  1                 
 53                  0.3500         7.569e-08          0.3499         
                   3.643e-09        1.377e-08         25.0000         
                  1                 
 54                  0.3500         7.473e-08          0.3498         
                   3.096e-09        9.480e-09         25.0000         
                  1                 
 55                  0.3499         7.299e-08          0.3498         
                   1.588e-09        6.526e-09         25.0000         
                  1                 
 56                  0.3500         7.498e-08          0.3499         
                   3.271e-09        1.067e-08         25.0000         
                  1                 
 57                  0.3497         7.292e-08          0.3499         
                   1.426e-09        7.613e-09         25.0000         
                  1                 
 58                  0.3500         7.440e-08          0.3499         
                   2.623e-09        1.027e-08         25.0000         
                  1                 
 59                  0.3499         7.678e-08        2.171e-04        
                   3.840e-09        2.461e-08         25.0000         
                  1                 
 60                  0.3499         7.352e-08          0.3499         
                   1.926e-09        8.318e-09         25.0000         
                  1                 
 61                  0.3500         7.581e-08          0.3498         
                   4.000e-09        1.244e-08         25.0000         
                  1                 
 62                  0.3499         7.348e-08          0.3499         
                   1.865e-09        8.847e-09         25.0000         
                  1                 
 63                  0.3499         7.430e-08          0.3499         
                   2.349e-09        1.218e-08         25.0000         
                  1                 
 64                  0.3498         7.250e-08          0.3498         
                   1.285e-09        5.193e-09         25.0000         
                  1                 
 65                  0.3499         7.501e-08          0.3499         
                   3.000e-09        1.309e-08         25.0000         
                  1                 
 66                  0.3499         7.416e-08          0.3499         
                   2.212e-09        1.199e-08         25.0000         
                  1                 
 67                  0.3499         7.302e-08          0.3498         
                   1.690e-09        6.008e-09         25.0000         
                  1                 
 68                  0.3499         7.574e-08          0.3500         
                   3.359e-09        1.724e-08         25.0000         
                  1                 
 69                  0.3499         7.374e-08          0.3498         
                   2.207e-09        8.019e-09         25.0000         
                  1                 
 70                  0.3500         7.624e-08          0.3498         
                   4.471e-09        1.271e-08         25.0000         
                  1                 
 71                  0.3500         7.668e-08          0.3500         
                   4.211e-09        1.933e-08         25.0000         
                  1                 
 72                  0.3500         7.622e-08          0.3498         
                   4.423e-09        1.290e-08         25.0000         
                  1                 
 73                  0.3499         7.540e-08          0.3500         
                   3.088e-09        1.631e-08         25.0000         
                  1                 
 74                  0.3500         7.708e-08          0.3499         
                   5.021e-09        1.618e-08         25.0000         
                  1                 
 75                  0.3499         7.380e-08          0.3499         
                   2.184e-09        8.708e-09         25.0000         
                  1                 
 76                  0.3498         7.499e-08        4.586e-04        
                   2.280e-09        2.001e-08         25.0000         
                  1                 
 77                  0.3500         7.635e-08          0.3499         
                   4.179e-09        1.544e-08         25.0000         
                  1                 
 78                  0.3500         7.450e-08          0.3496         
                   3.185e-09        7.724e-09         25.0000         
                  1                 
 79                  0.3499         7.300e-08          0.3498         
                   1.601e-09        6.696e-09         25.0000         
                  1                 
 80                  0.3499         7.383e-08          0.3498         
                   2.272e-09        7.999e-09         25.0000         
                  1                 
 81                  0.3499         7.562e-08          0.3499         
                   3.520e-09        1.443e-08         25.0000         
                  1                 
 82                  0.3500         7.562e-08          0.3498         
                   3.870e-09        1.166e-08         25.0000         
                  1                 
 83                  0.3500         7.670e-08          0.3497         
                   4.198e-09        1.971e-08         25.0000         
                  1                 
 84                  0.3500         7.478e-08          0.3499         
                   2.865e-09        1.175e-08         25.0000         
                  1                 
 85                  0.3500         7.601e-08          0.3499         
                   3.881e-09        1.488e-08         25.0000         
                  1                 
 86                  0.3499         7.588e-08          0.3500         
                   3.461e-09        1.813e-08         25.0000         
                  1                 
 87                  0.3499         7.317e-08          0.3497         
                   1.809e-09        6.244e-09         25.0000         
                  1                 
 88                  0.3499         7.561e-08          0.3500         
                   3.255e-09        1.662e-08         25.0000         
                  1                 
 89                  0.3500         7.650e-08          0.3500         
                   4.240e-09        1.686e-08         25.0000         
                  1                 
 90                  0.3498         7.321e-08          0.3499         
                   1.607e-09        8.633e-09         25.0000         
                  1                 
 91                  0.3500         7.403e-08          0.3498         
                   2.461e-09        8.314e-09         25.0000         
                  1                 
 92                  0.3500         7.422e-08          0.3497         
                   2.844e-09        7.441e-09         25.0000         
                  1                 
 93                  0.3500         7.804e-08          0.3499         
                   6.223e-09        1.686e-08         25.0000         
                  1                 
 94                  0.3500         7.386e-08          0.3498         
                   2.411e-09        7.395e-09         25.0000         
                  1                 
 95                  0.3499         7.364e-08          0.3497         
                   2.237e-09        6.669e-09         25.0000         
                  1                 
 96                  0.3499         7.349e-08          0.3497         
                   2.105e-09        6.422e-09         25.0000         
                  1                 
 97                  0.3499         7.466e-08          0.3500         
                   2.359e-09        1.534e-08         25.0000         
                  1                 
 98                  0.3500         7.410e-08          0.3498         
                   2.469e-09        8.773e-09         25.0000         
                  1                 
 99                  0.3500         7.703e-08          0.3498         
                   5.451e-09        1.372e-08         25.0000         
                  1                 
 100                 0.3500         7.819e-08        2.010e-04        
                   4.524e-09          failed          25.0000         
                  1                 
