$DATA1 SOURCE='HSPICE' VERSION='F-2011.09 64-BIT'
.TITLE '* include model and subckts'
 index            write1           t_rwlend         v_read1           
                  delay_write1     delay_read1      temper            
                  alter#            
 1                   0.3500         8.258e-08          0.3498         
                   2.648e-09        7.612e-09         25.0000         
                  1                 
 2                   0.3499         8.187e-08          0.3498         
                   1.650e-09        5.893e-09         25.0000         
                  1                 
 3                   0.3500         8.404e-08          0.3497         
                   5.351e-09        1.042e-08         25.0000         
                  1                 
 4                   0.3500         8.458e-08          0.3494         
                   7.175e-09        2.004e-08         25.0000         
                  1                 
 5                   0.3499         8.172e-08          0.3497         
                   1.316e-09        4.317e-09         25.0000         
                  1                 
 6                   0.3500         8.306e-08          0.3498         
                   3.518e-09        1.131e-08         25.0000         
                  1                 
 7                   0.3499         8.182e-08          0.3497         
                   1.470e-09        5.187e-09         25.0000         
                  1                 
 8                   0.3499         8.253e-08          0.3451         
                   3.248e-09        2.073e-08         25.0000         
                  1                 
 9                   0.3500         8.263e-08          0.3492         
                   3.177e-09        1.644e-08         25.0000         
                  1                 
 10                  0.3500         8.340e-08          0.3498         
                   4.259e-09        1.017e-08         25.0000         
                  1                 
 11                  0.3498         8.179e-08          0.3480         
                   1.750e-09        1.061e-08         25.0000         
                  1                 
 12                  0.3500         8.285e-08          0.3495         
                   2.873e-09        6.312e-09         25.0000         
                  1                 
 13                  0.3499         8.227e-08          0.3499         
                   2.343e-09        8.430e-09         25.0000         
                  1                 
 14                  0.3499         8.187e-08          0.3495         
                   1.456e-09        4.128e-09         25.0000         
                  1                 
 15                  0.3499         8.215e-08          0.3480         
                   2.326e-09        1.288e-08         25.0000         
                  1                 
 16                  0.3500         8.256e-08          0.3498         
                   2.881e-09        7.808e-09         25.0000         
                  1                 
 17                  0.3500         8.275e-08          0.3498         
                   3.013e-09        1.039e-08         25.0000         
                  1                 
 18                  0.3499         8.207e-08          0.3498         
                   1.798e-09        6.628e-09         25.0000         
                  1                 
 19                  0.3500         8.244e-08          0.3498         
                   2.293e-09        7.895e-09         25.0000         
                  1                 
 20                  0.3499         8.244e-08          0.3497         
                   2.804e-09        1.099e-08         25.0000         
                  1                 
 21                  0.3499         8.195e-08          0.3499         
                   1.878e-09        8.309e-09         25.0000         
                  1                 
 22                  0.3500         8.254e-08          0.3497         
                   2.723e-09        9.477e-09         25.0000         
                  1                 
 23                  0.3500         8.406e-08          0.3498         
                   5.876e-09        1.351e-08         25.0000         
                  1                 
 24                  0.3499         8.197e-08          0.3499         
                   1.729e-09        7.322e-09         25.0000         
                  1                 
 25                  0.3500         8.262e-08          0.3497         
                   2.730e-09        6.859e-09         25.0000         
                  1                 
 26                  0.3499         8.217e-08          0.3496         
                   2.258e-09        9.307e-09         25.0000         
                  1                 
 27                  0.3500         8.365e-08          0.3498         
                   4.631e-09        1.033e-08         25.0000         
                  1                 
 28                  0.3497         8.145e-08          0.3498         
                   1.055e-09        5.171e-09         25.0000         
                  1                 
 29                  0.3500         8.239e-08          0.3497         
                   2.393e-09        6.535e-09         25.0000         
                  1                 
 30                  0.3498         8.148e-08          0.3496         
                   1.008e-09        3.522e-09         25.0000         
                  1                 
 31                  0.3499         8.198e-08          0.3498         
                   1.777e-09        6.007e-09         25.0000         
                  1                 
 32                  0.3499         8.238e-08          0.3489         
                   2.896e-09        1.316e-08         25.0000         
                  1                 
 33                  0.3499         8.220e-08          0.3496         
                   2.270e-09        9.878e-09         25.0000         
                  1                 
 34                  0.3500         8.412e-08          0.3499         
                   5.959e-09        1.755e-08         25.0000         
                  1                 
 35                  0.3499         8.198e-08          0.3497         
                   1.716e-09        5.830e-09         25.0000         
                  1                 
 36                  0.3499         8.177e-08          0.3499         
                   1.688e-09        7.851e-09         25.0000         
                  1                 
 37                  0.3500         8.241e-08          0.3498         
                   2.471e-09        8.525e-09         25.0000         
                  1                 
 38                  0.3498         8.192e-08          0.3486         
                   2.056e-09        1.539e-08         25.0000         
                  1                 
 39                  0.3499         8.200e-08          0.3499         
                   2.038e-09        8.602e-09         25.0000         
                  1                 
 40                  0.3500         8.387e-08          0.3498         
                   5.254e-09        1.401e-08         25.0000         
                  1                 
 41                  0.3498         8.232e-08        1.414e-04        
                   2.942e-09        2.528e-08         25.0000         
                  1                 
 42                  0.3500         8.257e-08          0.3497         
                   2.904e-09        1.095e-08         25.0000         
                  1                 
 43                  0.3499         8.216e-08          0.3499         
                   2.158e-09        8.108e-09         25.0000         
                  1                 
 44                  0.3498         8.163e-08          0.3498         
                   1.324e-09        6.356e-09         25.0000         
                  1                 
 45                  0.3500         8.285e-08          0.3497         
                   3.208e-09        1.176e-08         25.0000         
                  1                 
 46                  0.3500         8.244e-08          0.3497         
                   2.385e-09        6.880e-09         25.0000         
                  1                 
 47                  0.3500         8.258e-08          0.3498         
                   2.766e-09        9.421e-09         25.0000         
                  1                 
 48                  0.3500         8.240e-08          0.3496         
                   2.139e-09        5.784e-09         25.0000         
                  1                 
 49                  0.3499         8.226e-08          0.3483         
                   2.431e-09        1.302e-08         25.0000         
                  1                 
 50                  0.3499         8.198e-08          0.3498         
                   1.815e-09        6.742e-09         25.0000         
                  1                 
