$DATA1 SOURCE='HSPICE' VERSION='F-2011.09 64-BIT'
.TITLE '* include model and subckts'
 index            write0           t_rwlend         v_read0           
                  delay_write0     delay_read0      temper            
                  alter#            
 1                 5.055e-05        7.427e-08        7.145e-05        
                   1.785e-09        1.061e-08         25.0000         
                  1                 
 2                 3.915e-05        7.306e-08        1.463e-04        
                   1.129e-09        6.410e-09         25.0000         
                  1                 
 3                 1.376e-04        7.675e-08          0.2056         
                   3.997e-09        2.207e-08         25.0000         
                  1                 
 4                -5.444e-06        7.949e-08          0.3499         
                   4.288e-09          failed          25.0000         
                  1                 
 5                 4.465e-05        7.253e-08        1.303e-04        
                   9.478e-10        4.926e-09         25.0000         
                  1                 
 6                 4.043e-05        7.549e-08        8.298e-05        
                   2.261e-09        1.489e-08         25.0000         
                  1                 
 7                 2.949e-05        7.280e-08        1.241e-04        
                   1.044e-09        5.600e-09         25.0000         
                  1                 
 8                 1.512e-05        7.610e-08        2.092e-04        
                   1.911e-09        1.436e-08         25.0000         
                  1                 
 9                 1.855e-05        7.566e-08        1.389e-04        
                   1.938e-09        1.384e-08         25.0000         
                  1                 
 10                8.488e-05        7.595e-08        2.633e-05        
                   2.839e-09        1.785e-08         25.0000         
                  1                 
 11                1.238e-05        7.368e-08        3.460e-04        
                   1.146e-09        6.853e-09         25.0000         
                  1                 
 12                1.222e-04        7.427e-08        4.279e-05        
                     failed           failed          25.0000         
                  1                 
 13                3.530e-05        7.408e-08        1.202e-04        
                   1.524e-09        9.602e-09         25.0000         
                  1                 
 14                5.358e-05        7.265e-08        8.557e-05        
                   1.070e-09        5.385e-09         25.0000         
                  1                 
 15                1.376e-05        7.449e-08        2.208e-04        
                   1.464e-09        9.722e-09         25.0000         
                  1                 
 16                8.579e-05        7.451e-08        7.982e-05        
                   1.915e-09        1.157e-08         25.0000         
                  1                 
 17                3.649e-05        7.492e-08        9.945e-05        
                   1.947e-09        1.280e-08         25.0000         
                  1                 
 18                2.473e-05        7.330e-08        1.211e-04        
                   1.252e-09        7.060e-09         25.0000         
                  1                 
 19                2.589e-05        7.397e-08        8.761e-05        
                   1.571e-09        9.304e-09         25.0000         
                  1                 
 20                3.412e-05        7.476e-08        1.446e-04        
                   1.730e-09        1.177e-08         25.0000         
                  1                 
 21                1.966e-05        7.358e-08        1.649e-04        
                   1.225e-09        7.529e-09         25.0000         
                  1                 
 22                3.603e-05        7.457e-08        1.044e-04        
                   1.752e-09        1.138e-08         25.0000         
                  1                 
 23                1.022e-04        7.763e-08        5.293e-05        
                     failed        -1.140e-08         25.0000         
                  1                 
 24                1.966e-05        7.330e-08        1.594e-04        
                   1.169e-09        6.807e-09         25.0000         
                  1                 
 25                8.344e-05        7.424e-08        5.868e-05        
                   1.896e-09        1.101e-08         25.0000         
                  1                 
 26                2.900e-05        7.406e-08        1.634e-04        
                   1.455e-09        9.217e-09         25.0000         
                  1                 
 27                9.871e-05        7.628e-08        5.473e-06        
                   3.177e-09        1.925e-08         25.0000         
                  1                 
 28                1.704e-05        7.237e-08        2.944e-04        
                   7.596e-10        3.916e-09         25.0000         
                  1                 
 29                6.746e-05        7.390e-08        7.055e-05        
                   1.646e-09        9.472e-09         25.0000         
                  1                 
 30                3.326e-05        7.210e-08        1.597e-04        
                   7.472e-10        3.648e-09         25.0000         
                  1                 
 31                3.705e-05        7.322e-08        1.135e-04        
                   1.214e-09        6.954e-09         25.0000         
                  1                 
 32                2.565e-05        7.507e-08        1.746e-04        
                   1.748e-09        1.239e-08         25.0000         
                  1                 
 33                1.983e-05        7.414e-08        1.438e-04        
                   1.458e-09        9.390e-09         25.0000         
                  1                 
 34                1.253e-04        7.833e-08          0.3499         
                   3.636e-09        2.757e-08         25.0000         
                  1                 
 35                3.043e-05        7.314e-08        1.046e-04        
                   1.193e-09        6.662e-09         25.0000         
                  1                 
 36                2.160e-05        7.335e-08        2.212e-04        
                   1.096e-09        6.657e-09         25.0000         
                  1                 
 37                3.413e-05        7.419e-08        1.008e-04        
                   1.608e-09        1.017e-08         25.0000         
                  1                 
 38                8.600e-06        7.443e-08        4.269e-04        
                   1.290e-09        8.600e-09         25.0000         
                  1                 
 39                3.064e-05        7.377e-08        1.893e-04        
                   1.317e-09        8.245e-09         25.0000         
                  1                 
 40                5.983e-05        7.729e-08          0.3496         
                   3.324e-09        2.322e-08         25.0000         
                  1                 
 41                1.040e-05        7.606e-08        3.861e-04        
                   1.743e-09        1.237e-08         25.0000         
                  1                 
 42                3.105e-05        7.487e-08        1.170e-04        
                   1.838e-09        1.241e-08         25.0000         
                  1                 
 43                3.381e-05        7.385e-08        1.369e-04        
                   1.423e-09        8.759e-09         25.0000         
                  1                 
 44                1.260e-05        7.282e-08        2.005e-04        
                   9.160e-10        5.120e-09         25.0000         
                  1                 
 45                2.550e-05        7.524e-08        8.651e-05        
                   2.030e-09        1.394e-08         25.0000         
                  1                 
 46                5.041e-05        7.394e-08        7.164e-05        
                   1.645e-09        9.652e-09         25.0000         
                  1                 
 47                3.653e-05        7.458e-08        9.938e-05        
                   1.793e-09        1.156e-08         25.0000         
                  1                 
 48                5.027e-05        7.358e-08        5.939e-05        
                   1.555e-09        8.422e-09         25.0000         
                  1                 
 49                1.328e-05        7.462e-08        1.758e-04        
                   1.528e-09        1.032e-08         25.0000         
                  1                 
 50                3.589e-05        7.332e-08        1.533e-04        
                   1.232e-09        7.143e-09         25.0000         
                  1                 
 51                6.168e-05        7.350e-08        6.039e-05        
                   1.512e-09        8.171e-09         25.0000         
                  1                 
 52                3.153e-05        7.450e-08        1.385e-04        
                   1.647e-09        1.086e-08         25.0000         
                  1                 
 53                2.390e-05        7.571e-08        5.695e-05        
                   2.187e-09        1.554e-08         25.0000         
                  1                 
 54                4.715e-05        7.472e-08        7.356e-05        
                   1.986e-09        1.225e-08         25.0000         
                  1                 
 55                2.212e-05        7.299e-08        1.732e-04        
                   1.040e-09        5.928e-09         25.0000         
                  1                 
 56                5.735e-05        7.500e-08        9.565e-05        
                   1.994e-09        1.307e-08         25.0000         
                  1                 
 57                1.962e-05        7.292e-08        3.812e-04        
                   9.151e-10        5.288e-09         25.0000         
                  1                 
 58                2.395e-05        7.440e-08        1.128e-04        
                   1.625e-09        1.055e-08         25.0000         
                  1                 
 59                1.600e-05        7.671e-08        2.069e-04        
                   2.140e-09        1.665e-08         25.0000         
                  1                 
 60                2.249e-05        7.351e-08        1.777e-04        
                   1.195e-09        7.358e-09         25.0000         
                  1                 
 61                4.451e-05        7.580e-08        4.304e-05        
                   2.416e-09        1.657e-08         25.0000         
                  1                 
 62                2.335e-05        7.350e-08        2.518e-04        
                   1.153e-09        7.065e-09         25.0000         
                  1                 
 63                1.587e-05        7.434e-08        2.109e-04        
                   1.434e-09        9.383e-09         25.0000         
                  1                 
 64                3.355e-05        7.250e-08        2.359e-04        
                   8.597e-10        4.584e-09         25.0000         
                  1                 
 65                2.019e-05        7.502e-08        1.307e-04        
                   1.796e-09        1.244e-08         25.0000         
                  1                 
 66                1.509e-05        7.417e-08        2.461e-04        
                   1.349e-09        8.699e-09         25.0000         
                  1                 
 67                6.028e-05        7.302e-08        1.692e-04        
                   1.100e-09        6.284e-09         25.0000         
                  1                 
 68                1.802e-05        7.574e-08        1.380e-04        
                   1.986e-09        1.412e-08         25.0000         
                  1                 
 69                3.148e-05        7.373e-08        1.196e-04        
                   1.422e-09        8.480e-09         25.0000         
                  1                 
 70                6.692e-05        7.625e-08        2.436e-05        
                   2.790e-09        1.835e-08         25.0000         
                  1                 
 71                2.325e-05        7.667e-08        1.277e-04        
                   2.393e-09        1.850e-08         25.0000         
                  1                 
 72                6.347e-05        7.622e-08        2.819e-05        
                   2.682e-09        1.829e-08         25.0000         
                  1                 
 73                2.021e-05        7.539e-08        2.402e-04        
                   1.808e-09        1.275e-08         25.0000         
                  1                 
 74                4.316e-05        7.710e-08          0.2264         
                   2.973e-09        2.147e-08         25.0000         
                  1                 
 75                2.777e-05        7.380e-08        1.450e-04        
                   1.371e-09        8.485e-09         25.0000         
                  1                 
 76                6.624e-06        7.496e-08        3.668e-04        
                   1.374e-09        9.758e-09         25.0000         
                  1                 
 77                3.342e-05        7.634e-08        5.119e-05        
                   2.469e-09        1.755e-08         25.0000         
                  1                 
 78                1.099e-04        7.452e-08        4.722e-05        
                   2.200e-09        1.216e-08         25.0000         
                  1                 
 79                2.176e-05        7.303e-08        1.800e-04        
                   1.038e-09        5.931e-09         25.0000         
                  1                 
 80                2.998e-05        7.383e-08        9.957e-05        
                   1.445e-09        8.860e-09         25.0000         
                  1                 
 81                3.351e-05        7.562e-08        1.075e-04        
                   2.092e-09        1.469e-08         25.0000         
                  1                 
 82                6.036e-05        7.561e-08        5.227e-05        
                   2.359e-09        1.578e-08         25.0000         
                  1                 
 83                2.205e-05        7.669e-08        1.435e-04        
                   2.375e-09        1.847e-08         25.0000         
                  1                 
 84                2.089e-05        7.477e-08        1.110e-04        
                   1.740e-09        1.177e-08         25.0000         
                  1                 
 85                3.247e-05        7.601e-08        7.847e-05        
                   2.307e-09        1.661e-08         25.0000         
                  1                 
 86                1.749e-05        7.592e-08        1.333e-04        
                   1.983e-09        1.478e-08         25.0000         
                  1                 
 87                3.171e-05        7.316e-08        1.101e-04        
                   1.201e-09        6.774e-09         25.0000         
                  1                 
 88                1.625e-05        7.557e-08        1.232e-04        
                   1.884e-09        1.385e-08         25.0000         
                  1                 
 89                3.148e-05        7.647e-08        6.879e-05        
                   2.483e-09        1.839e-08         25.0000         
                  1                 
 90                1.272e-05        7.320e-08        2.596e-04        
                   1.028e-09        5.890e-09         25.0000         
                  1                 
 91                3.405e-05        7.402e-08        9.154e-05        
                   1.568e-09        9.641e-09         25.0000         
                  1                 
 92                8.110e-05        7.422e-08        5.986e-05        
                   1.931e-09        1.066e-08         25.0000         
                  1                 
 93                8.213e-05        7.803e-08          0.3499         
                   3.829e-09        2.798e-08         25.0000         
                  1                 
 94                5.329e-05        7.385e-08        8.551e-05        
                   1.576e-09        9.261e-09         25.0000         
                  1                 
 95                6.632e-05        7.364e-08        8.740e-05        
                   1.463e-09        8.603e-09         25.0000         
                  1                 
 96                5.971e-05        7.349e-08        9.245e-05        
                   1.368e-09        8.074e-09         25.0000         
                  1                 
 97                1.015e-05        7.463e-08        2.847e-04        
                   1.410e-09        9.280e-09         25.0000         
                  1                 
 98                2.951e-05        7.409e-08        9.663e-05        
                   1.556e-09        9.812e-09         25.0000         
                  1                 
 99                8.946e-05        7.703e-08          0.3554         
                   3.548e-09        2.260e-08         25.0000         
                  1                 
 100               4.573e-05        7.817e-08          0.2608         
                   2.473e-09        2.008e-08         25.0000         
                  1                 
