$DATA1 SOURCE='HSPICE' VERSION='F-2011.09 64-BIT'
.TITLE '* include model and subckts'
 index            delay_write1     delay_read1      temper            
                  alter#            
 1                 5.431e-09       -2.556e-08         25.0000         
                  1                 
 2                 3.001e-09        9.335e-09         25.0000         
                  1                 
 3                   failed           failed          25.0000         
                  1                 
 4                   failed           failed          25.0000         
                  1                 
 5                 2.642e-09        7.640e-09         25.0000         
                  1                 
 6                   failed           failed          25.0000         
                  1                 
 7                 2.828e-09        8.607e-09         25.0000         
                  1                 
 8                 4.335e-09        2.751e-08         25.0000         
                  1                 
 9                 4.614e-09        1.965e-08         25.0000         
                  1                 
 10                  failed           failed          25.0000         
                  1                 
 11                2.383e-09       -2.895e-08         25.0000         
                  1                 
 12                  failed           failed          25.0000         
                  1                 
 13                4.168e-09        1.292e-08         25.0000         
                  1                 
 14                3.283e-09        8.624e-09         25.0000         
                  1                 
 15                3.414e-09        1.449e-08         25.0000         
                  1                 
 16                5.619e-09       -2.526e-08         25.0000         
                  1                 
 17                5.394e-09        1.621e-08         25.0000         
                  1                 
 18                3.358e-09        1.046e-08         25.0000         
                  1                 
 19                4.490e-09        1.336e-08         25.0000         
                  1                 
 20                4.528e-09        1.521e-08         25.0000         
                  1                 
 21                3.146e-09        1.111e-08         25.0000         
                  1                 
 22                4.896e-09        1.495e-08         25.0000         
                  1                 
 23                  failed           failed          25.0000         
                  1                 
 24                2.974e-09        1.014e-08         25.0000         
                  1                 
 25                6.003e-09        1.474e-08         25.0000         
                  1                 
 26                3.682e-09        1.267e-08         25.0000         
                  1                 
 27                  failed           failed          25.0000         
                  1                 
 28                1.689e-09       -3.371e-08         25.0000         
                  1                 
 29                5.053e-09       -2.693e-08         25.0000         
                  1                 
 30                1.979e-09        5.962e-09         25.0000         
                  1                 
 31                3.443e-09        1.027e-08         25.0000         
                  1                 
 32                4.393e-09        1.647e-08         25.0000         
                  1                 
 33                3.821e-09        1.314e-08         25.0000         
                  1                 
 34                  failed           failed          25.0000         
                  1                 
 35                3.418e-09        1.016e-08         25.0000         
                  1                 
 36                2.672e-09        9.998e-09         25.0000         
                  1                 
 37                4.552e-09        1.379e-08         25.0000         
                  1                 
 38                2.526e-09        1.381e-08         25.0000         
                  1                 
 39                3.261e-09        1.142e-08         25.0000         
                  1                 
 40                  failed           failed          25.0000         
                  1                 
 41                3.338e-09          failed          25.0000         
                  1                 
 42                4.942e-09        1.595e-08         25.0000         
                  1                 
 43                3.780e-09        1.197e-08         25.0000         
                  1                 
 44                2.223e-09        8.236e-09         25.0000         
                  1                 
 45                5.927e-09        1.883e-08         25.0000         
                  1                 
 46                5.037e-09        1.334e-08         25.0000         
                  1                 
 47                5.020e-09        1.510e-08         25.0000         
                  1                 
 48                4.996e-09        1.249e-08         25.0000         
                  1                 
 49                3.776e-09        1.527e-08         25.0000         
                  1                 
 50                3.155e-09        1.004e-08         25.0000         
                  1                 
