$DATA1 SOURCE='HSPICE' VERSION='F-2011.09 64-BIT'
.TITLE '* include model and subckts'
 index            write1           read1            delay_write1      
                  delay_read1      temper           alter#            
 1                   0.3500           0.3498         2.595e-09        
                  -2.801e-08         25.0000        1                 
 2                   0.3499           0.3498         1.511e-09        
                   8.929e-09         25.0000        1                 
 3                   0.3500           0.3497         6.234e-09        
                   1.737e-08         25.0000        1                 
 4                   0.3499         1.066e-04        8.117e-09        
                     failed          25.0000        1                 
 5                   0.3499           0.3497         1.197e-09        
                   6.386e-09         25.0000        1                 
 6                   0.3500           0.3498         3.592e-09        
                  -2.047e-08         25.0000        1                 
 7                   0.3499           0.3497         1.367e-09        
                   8.055e-09         25.0000        1                 
 8                   0.3498         1.691e-03        3.301e-09        
                     failed          25.0000        1                 
 9                   0.3499           0.1068         3.157e-09        
                     failed          25.0000        1                 
 10                  0.3500           0.3498         4.482e-09        
                  -2.344e-08         25.0000        1                 
 11                  0.3497           0.3499         1.646e-09        
                  -2.456e-08         25.0000        1                 
 12                  0.3500           0.3495         4.279e-08        
                   9.597e-09         25.0000        1                 
 13                  0.3499           0.3499         2.228e-09        
                   1.349e-08         25.0000        1                 
 14                  0.3499           0.3495         1.316e-09        
                   6.084e-09         25.0000        1                 
 15                  0.3498           0.3499         2.264e-09        
                   2.128e-08         25.0000        1                 
 16                  0.3500           0.3498         2.802e-09        
                  -2.831e-08         25.0000        1                 
 17                  0.3500           0.3499         2.987e-09        
                   1.746e-08         25.0000        1                 
 18                  0.3499           0.3498         1.714e-09        
                   1.084e-08         25.0000        1                 
 19                  0.3500           0.3498         2.242e-09        
                   1.341e-08         25.0000        1                 
 20                  0.3499           0.3499         2.679e-09        
                   1.774e-08         25.0000        1                 
 21                  0.3499           0.3499         1.768e-09        
                   1.319e-08         25.0000        1                 
 22                  0.3499           0.3499         2.656e-09        
                   1.558e-08         25.0000        1                 
 23                  0.3500           0.3498         6.472e-09        
                  -1.670e-08         25.0000        1                 
 24                  0.3499           0.3498         1.649e-09        
                   1.197e-08         25.0000        1                 
 25                  0.3500           0.3497         2.667e-09        
                   1.048e-08         25.0000        1                 
 26                  0.3499           0.3499         2.127e-09        
                   1.448e-08         25.0000        1                 
 27                  0.3500           0.3498         5.014e-09        
                  -2.315e-08         25.0000        1                 
 28                  0.3496           0.3498         9.667e-10        
                  -3.268e-08         25.0000        1                 
 29                  0.3500           0.3497         2.315e-09        
                  -3.004e-08         25.0000        1                 
 30                  0.3498           0.3496         8.977e-10        
                   5.131e-09         25.0000        1                 
 31                  0.3499           0.3498         1.648e-09        
                   9.320e-09         25.0000        1                 
 32                  0.3499           0.3499         2.771e-09        
                   2.151e-08         25.0000        1                 
 33                  0.3499           0.3499         2.188e-09        
                   1.635e-08         25.0000        1                 
 34                  0.3499         2.695e-03        6.447e-09        
                     failed          25.0000        1                 
 35                  0.3499           0.3497         1.606e-09        
                   9.263e-09         25.0000        1                 
 36                  0.3498           0.3499         1.547e-09        
                   1.169e-08         25.0000        1                 
 37                  0.3499           0.3498         2.388e-09        
                   1.396e-08         25.0000        1                 
 38                  0.3496           0.3491         1.985e-09        
                   2.299e-08         25.0000        1                 
 39                  0.3499           0.3499         1.891e-09        
                   1.294e-08         25.0000        1                 
 40                  0.3500           0.3498         5.703e-09        
                  -1.355e-08         25.0000        1                 
 41                  0.3496         2.076e-03        2.931e-09        
                     failed          25.0000        1                 
 42                  0.3499           0.3499         2.835e-09        
                   1.830e-08         25.0000        1                 
 43                  0.3499           0.3499         2.037e-09        
                   1.265e-08         25.0000        1                 
 44                  0.3498           0.3498         1.242e-09        
                   1.003e-08         25.0000        1                 
 45                  0.3500           0.3498         3.233e-09        
                   2.122e-08         25.0000        1                 
 46                  0.3500           0.3497         2.330e-09        
                   1.085e-08         25.0000        1                 
 47                  0.3499           0.3499         2.707e-09        
                   1.562e-08         25.0000        1                 
 48                  0.3500           0.3496         2.065e-09        
                   9.063e-09         25.0000        1                 
 49                  0.3499           0.3498         2.432e-09        
                   2.338e-08         25.0000        1                 
 50                  0.3499           0.3498         1.680e-09        
                   1.037e-08         25.0000        1                 
 51                  0.3500           0.3496         2.019e-09        
                  -3.151e-08         25.0000        1                 
 52                  0.3499           0.3499         2.481e-09        
                   1.638e-08         25.0000        1                 
 53                  0.3500           0.3497         3.617e-09        
                   2.769e-08         25.0000        1                 
 54                  0.3500           0.3498         2.979e-09        
                  -2.579e-08         25.0000        1                 
 55                  0.3498           0.3498         1.411e-09        
                   9.838e-09         25.0000        1                 
 56                  0.3500           0.3499         3.069e-09        
                  -2.457e-08         25.0000        1                 
 57                  0.3496           0.3499         1.229e-09        
                   9.871e-09         25.0000        1                 
 58                  0.3499           0.3499         2.462e-09        
                   1.672e-08         25.0000        1                 
 59                  0.3499         5.008e-04        3.795e-09        
                     failed          25.0000        1                 
 60                  0.3499           0.3499         1.710e-09        
                   1.233e-08         25.0000        1                 
 61                  0.3500           0.3498         3.971e-09        
                  -2.008e-08         25.0000        1                 
 62                  0.3498           0.3499         1.647e-09        
                   1.250e-08         25.0000        1                 
 63                  0.3498           0.3499         2.188e-09        
                   1.891e-08         25.0000        1                 
 64                  0.3498           0.3498         1.100e-09        
                   7.039e-09         25.0000        1                 
 65                  0.3499           0.3499         2.851e-09        
                   2.285e-08         25.0000        1                 
 66                  0.3498           0.3499         2.041e-09        
                   1.803e-08         25.0000        1                 
 67                  0.3499           0.3498         1.446e-09        
                   8.022e-09         25.0000        1                 
 68                  0.3499         3.024e-02        3.275e-09        
                     failed          25.0000        1                 
 69                  0.3499           0.3498         2.019e-09        
                   1.220e-08         25.0000        1                 
 70                  0.3500           0.3498         4.497e-09        
                  -1.980e-08         25.0000        1                 
 71                  0.3500         7.215e-04        4.192e-09        
                     failed          25.0000        1                 
 72                  0.3500           0.3498         4.443e-09        
                  -1.996e-08         25.0000        1                 
 73                  0.3499           0.3363         2.885e-09        
                   3.216e-08         25.0000        1                 
 74                  0.3500           0.3266         5.125e-09        
                  -3.655e-09         25.0000        1                 
 75                  0.3499           0.3499         1.978e-09        
                   1.317e-08         25.0000        1                 
 76                  0.3496         4.220e-02        2.290e-09        
                     failed          25.0000        1                 
 77                  0.3500           0.3350         4.151e-09        
                  -4.603e-09         25.0000        1                 
 78                  0.3500           0.3496         3.072e-09        
                  -2.953e-08         25.0000        1                 
 79                  0.3498           0.3498         1.416e-09        
                   9.962e-09         25.0000        1                 
 80                  0.3499           0.3498         2.088e-09        
                   1.241e-08         25.0000        1                 
 81                  0.3499           0.3498         3.342e-09        
                   2.466e-08         25.0000        1                 
 82                  0.3500           0.3498         3.762e-09        
                  -2.259e-08         25.0000        1                 
 83                  0.3499         6.777e-04        4.160e-09        
                     failed          25.0000        1                 
 84                  0.3499           0.3499         2.731e-09        
                   1.990e-08         25.0000        1                 
 85                  0.3500           0.3494         3.796e-09        
                   2.884e-08         25.0000        1                 
 86                  0.3499         7.303e-03        3.389e-09        
                     failed          25.0000        1                 
 87                  0.3499           0.3498         1.624e-09        
                   9.393e-09         25.0000        1                 
 88                  0.3499         9.417e-02        3.161e-09        
                     failed          25.0000        1                 
 89                  0.3500         8.259e-02        4.164e-09        
                     failed          25.0000        1                 
 90                  0.3497           0.3499         1.446e-09        
                  -2.738e-08         25.0000        1                 
 91                  0.3499           0.3498         2.281e-09        
                   1.289e-08         25.0000        1                 
 92                  0.3500           0.3497         2.688e-09        
                  -2.952e-08         25.0000        1                 
 93                  0.3500           0.3071         6.703e-09        
                  -2.517e-09         25.0000        1                 
 94                  0.3500           0.3498         2.226e-09        
                   1.072e-08         25.0000        1                 
 95                  0.3499           0.3497         2.036e-09        
                   9.386e-09         25.0000        1                 
 96                  0.3499           0.3497         1.890e-09        
                   9.106e-09         25.0000        1                 
 97                  0.3498           0.3488         2.239e-09        
                  -1.401e-08         25.0000        1                 
 98                  0.3499           0.3498         2.294e-09        
                   1.378e-08         25.0000        1                 
 99                  0.3500           0.3498         5.746e-09        
                  -1.966e-08         25.0000        1                 
 100                 0.3499         2.368e-04        4.930e-09        
                     failed          25.0000        1                 
