$DATA1 SOURCE='HSPICE' VERSION='F-2011.09 64-BIT'
.TITLE '* include model and subckts'
 index            delay_write0     delay_read0      temper            
                  alter#            
 1                 5.196e-10        7.699e-09         25.0000         
                  1                 
 2                 4.893e-10        5.666e-09         25.0000         
                  1                 
 3                 5.539e-10        4.394e-09         25.0000         
                  1                 
 4                 3.082e-10        6.137e-09         25.0000         
                  1                 
 5                 4.731e-10        2.938e-09         25.0000         
                  1                 
 6                 6.385e-10        1.002e-08         25.0000         
                  1                 
 7                 7.704e-10        4.679e-09         25.0000         
                  1                 
 8                 5.377e-10        4.588e-09         25.0000         
                  1                 
 9                 7.683e-10        8.950e-09         25.0000         
                  1                 
 10                4.442e-10        4.347e-09         25.0000         
                  1                 
 11                5.719e-10        4.503e-09         25.0000         
                  1                 
 12                4.647e-10        6.761e-09         25.0000         
                  1                 
 13                9.322e-10        5.739e-09         25.0000         
                  1                 
 14                6.575e-10        5.001e-09         25.0000         
                  1                 
 15                3.423e-10        4.279e-09         25.0000         
                  1                 
 16                5.356e-10        3.916e-09         25.0000         
                  1                 
 17                5.756e-10        5.125e-09         25.0000         
                  1                 
 18                6.088e-10       -4.051e-08         25.0000         
                  1                 
 19                5.232e-10       -3.515e-08         25.0000         
                  1                 
 20                5.522e-10        4.725e-09         25.0000         
                  1                 
 21                1.025e-09        5.129e-09         25.0000         
                  1                 
 22                6.213e-10        3.762e-09         25.0000         
                  1                 
 23                6.872e-10        4.945e-09         25.0000         
                  1                 
 24                5.178e-10        5.368e-09         25.0000         
                  1                 
 25                5.427e-10        6.029e-09         25.0000         
                  1                 
 26                3.746e-10        4.884e-09         25.0000         
                  1                 
 27                3.306e-10        4.702e-09         25.0000         
                  1                 
 28                5.040e-10        3.601e-09         25.0000         
                  1                 
 29                9.088e-10        5.048e-09         25.0000         
                  1                 
 30                6.405e-10        2.790e-09         25.0000         
                  1                 
 31                5.392e-10        4.121e-09         25.0000         
                  1                 
 32                4.908e-10        4.081e-09         25.0000         
                  1                 
 33                6.975e-10        3.436e-09         25.0000         
                  1                 
 34                4.613e-10        4.679e-09         25.0000         
                  1                 
 35                3.841e-10        6.140e-09         25.0000         
                  1                 
 36                4.804e-10        3.494e-09         25.0000         
                  1                 
 37                4.199e-10        3.633e-09         25.0000         
                  1                 
 38                7.100e-10        3.932e-09         25.0000         
                  1                 
 39                6.624e-10        4.575e-09         25.0000         
                  1                 
 40                7.885e-10        4.691e-09         25.0000         
                  1                 
 41                8.014e-10        3.168e-09         25.0000         
                  1                 
 42                6.685e-10        5.620e-09         25.0000         
                  1                 
 43                5.237e-10        2.428e-09         25.0000         
                  1                 
 44                4.219e-10        5.920e-09         25.0000         
                  1                 
 45                4.222e-10        3.608e-09         25.0000         
                  1                 
 46                6.044e-10        4.340e-09         25.0000         
                  1                 
 47                3.674e-10        5.604e-09         25.0000         
                  1                 
 48                6.844e-10        5.512e-09         25.0000         
                  1                 
 49                5.025e-10        6.208e-09         25.0000         
                  1                 
 50                9.674e-10        6.557e-09         25.0000         
                  1                 
 51                4.250e-10       -4.071e-08         25.0000         
                  1                 
 52                6.195e-10        4.165e-09         25.0000         
                  1                 
 53                5.493e-10        3.449e-09         25.0000         
                  1                 
 54                4.285e-10        5.850e-09         25.0000         
                  1                 
 55                3.363e-10        4.627e-09         25.0000         
                  1                 
 56                5.443e-10        4.423e-09         25.0000         
                  1                 
 57                4.872e-10        5.298e-09         25.0000         
                  1                 
 58                5.194e-10        2.791e-09         25.0000         
                  1                 
 59                8.118e-10        5.306e-09         25.0000         
                  1                 
 60                4.682e-10       -3.620e-08         25.0000         
                  1                 
 61                4.211e-10        5.105e-09         25.0000         
                  1                 
 62                4.641e-10        3.512e-09         25.0000         
                  1                 
 63                8.911e-10        4.318e-09         25.0000         
                  1                 
 64                1.112e-09        3.881e-09         25.0000         
                  1                 
 65                6.619e-10        4.503e-09         25.0000         
                  1                 
 66                4.205e-10        3.208e-09         25.0000         
                  1                 
 67                5.849e-10        3.252e-09         25.0000         
                  1                 
 68                5.462e-10        7.543e-09         25.0000         
                  1                 
 69                6.569e-10        5.139e-09         25.0000         
                  1                 
 70                3.969e-10        6.061e-09         25.0000         
                  1                 
 71                8.049e-10        4.600e-09         25.0000         
                  1                 
 72                5.105e-10        4.635e-09         25.0000         
                  1                 
 73                5.017e-10        3.339e-09         25.0000         
                  1                 
 74                6.722e-10        4.573e-09         25.0000         
                  1                 
 75                4.900e-10        6.412e-09         25.0000         
                  1                 
 76                5.606e-10        4.018e-09         25.0000         
                  1                 
 77                4.903e-10        3.896e-09         25.0000         
                  1                 
 78                4.371e-10        3.649e-09         25.0000         
                  1                 
 79                3.911e-10        3.899e-09         25.0000         
                  1                 
 80                5.291e-10        3.082e-09         25.0000         
                  1                 
 81                6.361e-10        3.193e-09         25.0000         
                  1                 
 82                5.648e-10       -3.691e-08         25.0000         
                  1                 
 83                4.316e-10        4.300e-09         25.0000         
                  1                 
 84                4.389e-10        6.780e-09         25.0000         
                  1                 
 85                3.541e-10        5.181e-09         25.0000         
                  1                 
 86                5.125e-10       -4.124e-08         25.0000         
                  1                 
 87                6.691e-10        3.110e-09         25.0000         
                  1                 
 88                8.025e-10        4.651e-09         25.0000         
                  1                 
 89                5.286e-10        3.346e-09         25.0000         
                  1                 
 90                4.178e-10        4.566e-09         25.0000         
                  1                 
 91                6.550e-10        4.408e-09         25.0000         
                  1                 
 92                5.633e-10        5.383e-09         25.0000         
                  1                 
 93                4.786e-10        3.821e-09         25.0000         
                  1                 
 94                3.213e-10        4.634e-09         25.0000         
                  1                 
 95                7.092e-10       -3.416e-08         25.0000         
                  1                 
 96                6.187e-10        6.880e-09         25.0000         
                  1                 
 97                7.210e-10        6.750e-09         25.0000         
                  1                 
 98                4.359e-10        4.520e-09         25.0000         
                  1                 
 99                4.600e-10        2.844e-09         25.0000         
                  1                 
 100               5.999e-10        3.637e-09         25.0000         
                  1                 
