$DATA1 SOURCE='HSPICE' VERSION='F-2011.09 64-BIT'
.TITLE '* include model and subckts'
 index            delay_write1     delay_read1      temper            
                  alter#            
 1                 1.477e-09        3.658e-09         25.0000         
                  1                 
 2                 1.015e-09        4.155e-09         25.0000         
                  1                 
 3                 1.101e-09        5.340e-09         25.0000         
                  1                 
 4                 7.124e-10        4.987e-09         25.0000         
                  1                 
 5                 8.097e-10        3.313e-09         25.0000         
                  1                 
 6                 8.756e-10        4.145e-09         25.0000         
                  1                 
 7                 1.056e-09        5.082e-09         25.0000         
                  1                 
 8                 8.154e-10        7.197e-09         25.0000         
                  1                 
 9                 8.914e-10        6.896e-09         25.0000         
                  1                 
 10                9.881e-10        4.443e-09         25.0000         
                  1                 
 11                9.125e-10        4.250e-09         25.0000         
                  1                 
 12                7.739e-10        3.140e-09         25.0000         
                  1                 
 13                8.997e-10        5.169e-09         25.0000         
                  1                 
 14                1.172e-09        5.207e-09         25.0000         
                  1                 
 15                6.479e-10        4.027e-09         25.0000         
                  1                 
 16                8.764e-10        4.475e-09         25.0000         
                  1                 
 17                1.151e-09        4.429e-09         25.0000         
                  1                 
 18                1.158e-09        4.714e-09         25.0000         
                  1                 
 19                1.091e-09          failed          25.0000         
                  1                 
 20                8.523e-10        3.699e-09         25.0000         
                  1                 
 21                1.703e-09        5.689e-09         25.0000         
                  1                 
 22                1.391e-09        4.000e-09         25.0000         
                  1                 
 23                9.918e-10        4.446e-09         25.0000         
                  1                 
 24                7.299e-10        3.316e-09         25.0000         
                  1                 
 25                6.678e-10        4.842e-09         25.0000         
                  1                 
 26                6.708e-10        4.865e-09         25.0000         
                  1                 
 27                7.312e-10        3.277e-09         25.0000         
                  1                 
 28                7.392e-10        3.948e-09         25.0000         
                  1                 
 29                1.128e-09        5.545e-09         25.0000         
                  1                 
 30                1.037e-09        4.033e-09         25.0000         
                  1                 
 31                8.859e-10        7.138e-09         25.0000         
                  1                 
 32                7.438e-10        3.266e-09         25.0000         
                  1                 
 33                1.141e-09        4.305e-09         25.0000         
                  1                 
 34                9.957e-10        3.689e-09         25.0000         
                  1                 
 35                7.437e-10        3.954e-09         25.0000         
                  1                 
 36                1.056e-09        4.384e-09         25.0000         
                  1                 
 37                7.885e-10        4.271e-09         25.0000         
                  1                 
 38                1.034e-09        3.652e-09         25.0000         
                  1                 
 39                1.280e-09        4.362e-09         25.0000         
                  1                 
 40                1.283e-09        4.075e-09         25.0000         
                  1                 
 41                9.628e-10        4.328e-09         25.0000         
                  1                 
 42                1.387e-09        3.571e-09         25.0000         
                  1                 
 43                8.100e-10        4.796e-09         25.0000         
                  1                 
 44                9.957e-10        5.838e-09         25.0000         
                  1                 
 45                4.073e-08        4.619e-09         25.0000         
                  1                 
 46                9.101e-10        6.312e-09         25.0000         
                  1                 
 47                7.680e-10        4.911e-09         25.0000         
                  1                 
 48                9.456e-10        4.184e-09         25.0000         
                  1                 
 49                1.020e-09        5.427e-09         25.0000         
                  1                 
 50                8.052e-10        4.472e-09         25.0000         
                  1                 
 51                9.025e-10        3.610e-09         25.0000         
                  1                 
 52                1.085e-09        4.057e-09         25.0000         
                  1                 
 53                8.013e-10        4.984e-09         25.0000         
                  1                 
 54                1.059e-09        7.064e-09         25.0000         
                  1                 
 55                6.514e-10        4.956e-09         25.0000         
                  1                 
 56                1.163e-09        8.507e-09         25.0000         
                  1                 
 57                1.010e-09        7.562e-09         25.0000         
                  1                 
 58                7.624e-10        5.041e-09         25.0000         
                  1                 
 59                8.046e-10        3.867e-09         25.0000         
                  1                 
 60                9.411e-10          failed          25.0000         
                  1                 
 61                1.146e-09        4.437e-09         25.0000         
                  1                 
 62                9.013e-10        4.671e-09         25.0000         
                  1                 
 63                1.051e-09        5.652e-09         25.0000         
                  1                 
 64                9.046e-10        4.341e-09         25.0000         
                  1                 
 65                9.244e-10        3.925e-09         25.0000         
                  1                 
 66                9.264e-10        4.191e-09         25.0000         
                  1                 
 67                9.833e-10        3.228e-09         25.0000         
                  1                 
 68                1.045e-09        5.096e-09         25.0000         
                  1                 
 69                1.206e-09        7.067e-09         25.0000         
                  1                 
 70                6.344e-10        6.009e-09         25.0000         
                  1                 
 71                8.330e-10        5.062e-09         25.0000         
                  1                 
 72                8.016e-10        4.711e-09         25.0000         
                  1                 
 73                8.499e-10        4.679e-09         25.0000         
                  1                 
 74                1.181e-09        5.079e-09         25.0000         
                  1                 
 75                1.189e-09        5.040e-09         25.0000         
                  1                 
 76                1.065e-09        4.653e-09         25.0000         
                  1                 
 77                9.447e-10        4.580e-09         25.0000         
                  1                 
 78                8.739e-10        4.538e-09         25.0000         
                  1                 
 79                7.040e-10        5.609e-09         25.0000         
                  1                 
 80                1.127e-09        3.823e-09         25.0000         
                  1                 
 81                5.796e-10        6.223e-09         25.0000         
                  1                 
 82                7.203e-10          failed          25.0000         
                  1                 
 83                8.949e-10        3.296e-09         25.0000         
                  1                 
 84                6.711e-10        4.564e-09         25.0000         
                  1                 
 85                9.847e-10        4.874e-09         25.0000         
                  1                 
 86                8.005e-10        3.124e-09         25.0000         
                  1                 
 87                1.406e-09        3.052e-09         25.0000         
                  1                 
 88                1.012e-09        6.786e-09         25.0000         
                  1                 
 89                1.173e-09        4.776e-09         25.0000         
                  1                 
 90                6.820e-10        5.351e-09         25.0000         
                  1                 
 91                1.156e-09        4.203e-09         25.0000         
                  1                 
 92                6.459e-10        6.281e-09         25.0000         
                  1                 
 93                9.506e-10        3.034e-09         25.0000         
                  1                 
 94                6.386e-10        5.470e-09         25.0000         
                  1                 
 95                9.784e-10          failed          25.0000         
                  1                 
 96                8.166e-10        4.447e-09         25.0000         
                  1                 
 97                1.062e-09        5.819e-09         25.0000         
                  1                 
 98                1.108e-09        4.164e-09         25.0000         
                  1                 
 99                8.890e-10        3.828e-09         25.0000         
                  1                 
 100               1.062e-09        7.560e-09         25.0000         
                  1                 
