$DATA1 SOURCE='HSPICE' VERSION='F-2011.09 64-BIT'
.TITLE '* include model and subckts'
 index            delay_write1     delay_read1      temper            
                  alter#            
 1                 1.001e-09        3.134e-09         25.0000         
                  1                 
 2                 5.618e-10        2.745e-09         25.0000         
                  1                 
 3                 2.213e-09        3.068e-09         25.0000         
                  1                 
 4                 2.655e-09        9.052e-09         25.0000         
                  1                 
 5                 4.742e-10        1.892e-09         25.0000         
                  1                 
 6                 1.301e-09        5.238e-09         25.0000         
                  1                 
 7                 5.311e-10        2.439e-09         25.0000         
                  1                 
 8                 1.015e-09        1.201e-08         25.0000         
                  1                 
 9                 1.020e-09        9.248e-09         25.0000         
                  1                 
 10                1.639e-09        3.805e-09         25.0000         
                  1                 
 11                5.235e-10        6.160e-09         25.0000         
                  1                 
 12                1.205e-09        1.793e-09         25.0000         
                  1                 
 13                8.073e-10        4.037e-09         25.0000         
                  1                 
 14                5.619e-10        1.635e-09         25.0000         
                  1                 
 15                7.469e-10        7.201e-09         25.0000         
                  1                 
 16                1.037e-09        3.078e-09         25.0000         
                  1                 
 17                1.058e-09        4.961e-09         25.0000         
                  1                 
 18                6.360e-10        3.218e-09         25.0000         
                  1                 
 19                8.486e-10        3.855e-09         25.0000         
                  1                 
 20                9.194e-10        5.544e-09         25.0000         
                  1                 
 21                6.383e-10        4.225e-09         25.0000         
                  1                 
 22                9.497e-10        4.509e-09         25.0000         
                  1                 
 23                2.201e-09        5.220e-09         25.0000         
                  1                 
 24                5.900e-10        3.757e-09         25.0000         
                  1                 
 25                1.069e-09        2.502e-09         25.0000         
                  1                 
 26                7.424e-10        4.726e-09         25.0000         
                  1                 
 27                1.821e-09        3.499e-09         25.0000         
                  1                 
 28                3.443e-10        2.665e-09         25.0000         
                  1                 
 29                9.123e-10        2.511e-09         25.0000         
                  1                 
 30                3.645e-10        1.572e-09         25.0000         
                  1                 
 31                6.338e-10        2.704e-09         25.0000         
                  1                 
 32                9.332e-10        6.913e-09         25.0000         
                  1                 
 33                7.749e-10        5.137e-09         25.0000         
                  1                 
 34                2.135e-09        8.007e-09         25.0000         
                  1                 
 35                6.335e-10        2.638e-09         25.0000         
                  1                 
 36                5.445e-10        4.056e-09         25.0000         
                  1                 
 37                8.767e-10        4.005e-09         25.0000         
                  1                 
 38                6.003e-10        9.350e-09         25.0000         
                  1                 
 39                6.577e-10        4.355e-09         25.0000         
                  1                 
 40                1.992e-09        5.906e-09         25.0000         
                  1                 
 41                8.351e-10        1.505e-08         25.0000         
                  1                 
 42                9.919e-10        5.429e-09         25.0000         
                  1                 
 43                7.286e-10        3.954e-09         25.0000         
                  1                 
 44                4.539e-10        3.285e-09         25.0000         
                  1                 
 45                1.173e-09        5.821e-09         25.0000         
                  1                 
 46                9.137e-10        2.757e-09         25.0000         
                  1                 
 47                9.738e-10        4.469e-09         25.0000         
                  1                 
 48                8.686e-10        2.230e-09         25.0000         
                  1                 
 49                8.165e-10        7.221e-09         25.0000         
                  1                 
 50                6.069e-10        3.252e-09         25.0000         
                  1                 
 51                8.497e-10        2.010e-09         25.0000         
                  1                 
 52                8.684e-10        5.095e-09         25.0000         
                  1                 
 53                1.296e-09        6.659e-09         25.0000         
                  1                 
 54                1.099e-09        3.902e-09         25.0000         
                  1                 
 55                5.152e-10        3.179e-09         25.0000         
                  1                 
 56                1.093e-09        4.357e-09         25.0000         
                  1                 
 57                4.141e-10        4.008e-09         25.0000         
                  1                 
 58                8.864e-10        4.966e-09         25.0000         
                  1                 
 59                1.164e-09        1.350e-08         25.0000         
                  1                 
 60                6.126e-10        4.059e-09         25.0000         
                  1                 
 61                1.442e-09        5.049e-09         25.0000         
                  1                 
 62                5.581e-10        4.531e-09         25.0000         
                  1                 
 63                7.264e-10        6.488e-09         25.0000         
                  1                 
 64                3.961e-10        2.453e-09         25.0000         
                  1                 
 65                9.853e-10        6.723e-09         25.0000         
                  1                 
 66                6.657e-10        6.419e-09         25.0000         
                  1                 
 67                5.364e-10        2.531e-09         25.0000         
                  1                 
 68                1.054e-09        9.504e-09         25.0000         
                  1                 
 69                7.348e-10        3.678e-09         25.0000         
                  1                 
 70                1.633e-09        4.811e-09         25.0000         
                  1                 
 71                1.377e-09        1.029e-08         25.0000         
                  1                 
 72                1.564e-09        4.962e-09         25.0000         
                  1                 
 73                9.148e-10        8.853e-09         25.0000         
                  1                 
 74                1.751e-09        7.102e-09         25.0000         
                  1                 
 75                7.108e-10        4.151e-09         25.0000         
                  1                 
 76                6.834e-10        1.196e-08         25.0000         
                  1                 
 77                1.426e-09        7.409e-09         25.0000         
                  1                 
 78                1.239e-09        2.232e-09         25.0000         
                  1                 
 79                5.126e-10        3.277e-09         25.0000         
                  1                 
 80                7.894e-10        3.559e-09         25.0000         
                  1                 
 81                1.107e-09        7.115e-09         25.0000         
                  1                 
 82                1.343e-09        4.598e-09         25.0000         
                  1                 
 83                1.366e-09        1.033e-08         25.0000         
                  1                 
 84                9.676e-10        5.804e-09         25.0000         
                  1                 
 85                1.282e-09        7.201e-09         25.0000         
                  1                 
 86                1.097e-09        9.939e-09         25.0000         
                  1                 
 87                6.278e-10        2.797e-09         25.0000         
                  1                 
 88                1.046e-09        8.996e-09         25.0000         
                  1                 
 89                1.379e-09        8.331e-09         25.0000         
                  1                 
 90                4.901e-10        4.463e-09         25.0000         
                  1                 
 91                8.648e-10        3.584e-09         25.0000         
                  1                 
 92                1.058e-09        2.392e-09         25.0000         
                  1                 
 93                2.295e-09        6.344e-09         25.0000         
                  1                 
 94                8.412e-10        2.975e-09         25.0000         
                  1                 
 95                7.874e-10        2.506e-09         25.0000         
                  1                 
 96                7.412e-10        2.475e-09         25.0000         
                  1                 
 97                7.029e-10        8.701e-09         25.0000         
                  1                 
 98                8.608e-10        3.922e-09         25.0000         
                  1                 
 99                2.049e-09        4.524e-09         25.0000         
                  1                 
 100               1.430e-09        2.362e-08         25.0000         
                  1                 
