$DATA1 SOURCE='HSPICE' VERSION='F-2011.09 64-BIT'
.TITLE '* include model and subckts'
 index            write0           read0            delay_write0      
                  delay_read0      temper           alter#            
 1                 1.047e-05          0.3499         2.643e-09        
                     failed          25.0000        1                 
 2                 1.455e-05          0.3497         1.130e-09        
                     failed          25.0000        1                 
 3                 9.227e-05          0.3497         1.593e-09        
                     failed          25.0000        1                 
 4                 1.527e-05          0.3498         1.447e-09        
                     failed          25.0000        1                 
 5                 1.032e-05          0.3497         1.549e-09        
                     failed          25.0000        1                 
 6                 8.121e-05          0.3499         2.354e-09        
                     failed          25.0000        1                 
 7                 1.133e-04          0.3498         3.186e-09        
                     failed          25.0000        1                 
 8                 1.528e-05          0.3498         1.679e-09        
                     failed          25.0000        1                 
 9                 2.034e-05          0.3499         1.713e-09        
                     failed          25.0000        1                 
 10                2.218e-05          0.3430         2.810e-09        
                     failed          25.0000        1                 
 11                1.910e-05          0.3496         1.390e-09        
                     failed          25.0000        1                 
 12                  0.3499           0.3498           failed         
                     failed          25.0000        1                 
 13                1.890e-05        1.267e-03        1.979e-09        
                     failed          25.0000        1                 
 14                1.365e-05          0.3497         1.614e-09        
                     failed          25.0000        1                 
 15                1.585e-05          0.3493         2.518e-09        
                     failed          25.0000        1                 
 16                7.512e-05          0.3499         1.712e-09        
                     failed          25.0000        1                 
 17                2.553e-05          0.3497         2.162e-09        
                     failed          25.0000        1                 
 18                8.074e-05          0.3497         3.268e-09        
                     failed          25.0000        1                 
 19                2.210e-05          0.3498         1.426e-09        
                     failed          25.0000        1                 
 20                  0.3499           0.3497           failed         
                     failed          25.0000        1                 
 21                1.719e-04          0.3499         2.555e-09        
                     failed          25.0000        1                 
 22                1.725e-05          0.3499         2.341e-09        
                     failed          25.0000        1                 
 23                1.267e-05          0.3335         2.178e-09        
                     failed          25.0000        1                 
 24                2.139e-05          0.3496         2.484e-09        
                     failed          25.0000        1                 
 25                2.242e-05          0.3496         2.275e-09        
                     failed          25.0000        1                 
 26                4.889e-05          0.3467         2.759e-09        
                     failed          25.0000        1                 
 27                4.363e-05          0.3498         2.616e-09        
                     failed          25.0000        1                 
 28                3.523e-05        3.327e-04        2.408e-09        
                   1.909e-08         25.0000        1                 
 29                4.178e-05          0.3497         2.287e-09        
                     failed          25.0000        1                 
 30                1.409e-05        8.260e-05        1.814e-09        
                   1.803e-08         25.0000        1                 
 31                3.506e-05          0.3498         1.484e-09        
                     failed          25.0000        1                 
 32                3.752e-05          0.3499         2.597e-09        
                     failed          25.0000        1                 
 33                1.914e-05          0.3499         2.389e-09        
                     failed          25.0000        1                 
 34                2.965e-05          0.3498         1.520e-09        
                     failed          25.0000        1                 
 35                2.318e-05          0.3499         1.501e-09        
                     failed          25.0000        1                 
 36                1.927e-05          0.3497         2.608e-09        
                     failed          25.0000        1                 
 37                2.498e-05          0.3499         1.235e-09        
                     failed          25.0000        1                 
 38                3.283e-05          0.3498         2.388e-09        
                     failed          25.0000        1                 
 39                  0.3499           0.3496         4.193e-08        
                     failed          25.0000        1                 
 40                4.497e-05          0.3495         1.820e-09        
                     failed          25.0000        1                 
 41                1.586e-05          0.3498         2.184e-09        
                     failed          25.0000        1                 
 42                2.348e-05          0.3498         2.573e-09        
                     failed          25.0000        1                 
 43                6.051e-05          0.3498         2.073e-09        
                     failed          25.0000        1                 
 44                1.423e-05          0.3498         2.261e-09        
                     failed          25.0000        1                 
 45                6.417e-05          0.3499         2.410e-09        
                     failed          25.0000        1                 
 46                2.371e-05          0.3494         2.226e-09        
                     failed          25.0000        1                 
 47                3.353e-05          0.3490         2.298e-09        
                     failed          25.0000        1                 
 48                2.538e-05          0.3497         2.679e-09        
                     failed          25.0000        1                 
 49                3.034e-05          0.3498         2.054e-09        
                     failed          25.0000        1                 
 50                  0.3497           0.3499           failed         
                     failed          25.0000        1                 
