$DATA1 SOURCE='HSPICE' VERSION='F-2011.09 64-BIT'
.TITLE '* include model and subckts'
 index            delay_write0     delay_read0      temper            
                  alter#            
 1                 5.369e-10        1.384e-08         25.0000         
                  1                 
 2                 5.119e-10        9.106e-09         25.0000         
                  1                 
 3                 5.603e-10        6.909e-09         25.0000         
                  1                 
 4                 3.356e-10        1.057e-08         25.0000         
                  1                 
 5                 4.919e-10        4.677e-09         25.0000         
                  1                 
 6                 6.463e-10        1.685e-08         25.0000         
                  1                 
 7                 7.956e-10        7.700e-09         25.0000         
                  1                 
 8                 5.556e-10        6.915e-09         25.0000         
                  1                 
 9                 7.081e-10        1.274e-08         25.0000         
                  1                 
 10                4.822e-10        6.256e-09         25.0000         
                  1                 
 11                6.056e-10        6.990e-09         25.0000         
                  1                 
 12                5.008e-10        1.054e-08         25.0000         
                  1                 
 13                8.517e-10        9.230e-09         25.0000         
                  1                 
 14                6.620e-10        7.649e-09         25.0000         
                  1                 
 15                3.768e-10        6.871e-09         25.0000         
                  1                 
 16                5.629e-10        6.508e-09         25.0000         
                  1                 
 17                5.811e-10        8.978e-09         25.0000         
                  1                 
 18                5.812e-10        6.799e-09         25.0000         
                  1                 
 19                5.595e-10       -3.181e-08         25.0000         
                  1                 
 20                5.799e-10        7.688e-09         25.0000         
                  1                 
 21                7.892e-10        8.687e-09         25.0000         
                  1                 
 22                6.214e-10        6.018e-09         25.0000         
                  1                 
 23                6.913e-10        8.113e-09         25.0000         
                  1                 
 24                5.463e-10        8.409e-09         25.0000         
                  1                 
 25                5.623e-10        9.902e-09         25.0000         
                  1                 
 26                4.166e-10        7.650e-09         25.0000         
                  1                 
 27                3.528e-10        7.556e-09         25.0000         
                  1                 
 28                5.266e-10        6.191e-09         25.0000         
                  1                 
 29                9.096e-10        7.119e-09         25.0000         
                  1                 
 30                6.404e-10        4.701e-09         25.0000         
                  1                 
 31                5.760e-10        5.988e-09         25.0000         
                  1                 
 32                5.205e-10        6.685e-09         25.0000         
                  1                 
 33                6.637e-10        5.304e-09         25.0000         
                  1                 
 34                5.091e-10        7.507e-09         25.0000         
                  1                 
 35                4.171e-10        1.062e-08         25.0000         
                  1                 
 36                5.070e-10        5.439e-09         25.0000         
                  1                 
 37                4.489e-10        6.230e-09         25.0000         
                  1                 
 38                6.587e-10        6.824e-09         25.0000         
                  1                 
 39                7.035e-10        7.229e-09         25.0000         
                  1                 
 40                7.317e-10        7.352e-09         25.0000         
                  1                 
 41                7.865e-10        5.093e-09         25.0000         
                  1                 
 42                7.203e-10        7.980e-09         25.0000         
                  1                 
 43                5.084e-10        4.220e-09         25.0000         
                  1                 
 44                4.593e-10        9.631e-09         25.0000         
                  1                 
 45                4.570e-10        6.268e-09         25.0000         
                  1                 
 46                6.248e-10        7.041e-09         25.0000         
                  1                 
 47                4.047e-10        8.528e-09         25.0000         
                  1                 
 48                6.563e-10        9.638e-09         25.0000         
                  1                 
 49                5.290e-10        1.033e-08         25.0000         
                  1                 
 50                8.429e-10        1.087e-08         25.0000         
                  1                 
 51                4.705e-10        6.607e-09         25.0000         
                  1                 
 52                6.506e-10        6.707e-09         25.0000         
                  1                 
 53                5.926e-10        5.117e-09         25.0000         
                  1                 
 54                4.612e-10        8.155e-09         25.0000         
                  1                 
 55                3.737e-10        7.353e-09         25.0000         
                  1                 
 56                5.698e-10        6.853e-09         25.0000         
                  1                 
 57                5.096e-10        8.219e-09         25.0000         
                  1                 
 58                5.336e-10        4.552e-09         25.0000         
                  1                 
 59                7.654e-10        7.987e-09         25.0000         
                  1                 
 60                5.168e-10       -3.384e-08         25.0000         
                  1                 
 61                4.360e-10        7.684e-09         25.0000         
                  1                 
 62                4.784e-10        5.400e-09         25.0000         
                  1                 
 63                7.467e-10        6.967e-09         25.0000         
                  1                 
 64                1.017e-09       -4.226e-08         25.0000         
                  1                 
 65                6.509e-10        7.600e-09         25.0000         
                  1                 
 66                4.314e-10        5.208e-09         25.0000         
                  1                 
 67                6.114e-10        5.185e-09         25.0000         
                  1                 
 68                5.703e-10        1.229e-08         25.0000         
                  1                 
 69                6.702e-10        7.868e-09         25.0000         
                  1                 
 70                4.090e-10        9.357e-09         25.0000         
                  1                 
 71                7.686e-10        7.227e-09         25.0000         
                  1                 
 72                5.169e-10        7.443e-09         25.0000         
                  1                 
 73                5.455e-10        5.560e-09         25.0000         
                  1                 
 74                6.669e-10        7.089e-09         25.0000         
                  1                 
 75                4.838e-10        9.643e-09         25.0000         
                  1                 
 76                5.768e-10        6.758e-09         25.0000         
                  1                 
 77                5.176e-10        6.299e-09         25.0000         
                  1                 
 78                4.828e-10        5.746e-09         25.0000         
                  1                 
 79                4.287e-10        6.269e-09         25.0000         
                  1                 
 80                5.444e-10        4.892e-09         25.0000         
                  1                 
 81                6.047e-10        5.083e-09         25.0000         
                  1                 
 82                5.659e-10       -3.560e-08         25.0000         
                  1                 
 83                4.768e-10        7.467e-09         25.0000         
                  1                 
 84                4.775e-10        1.071e-08         25.0000         
                  1                 
 85                3.874e-10        8.763e-09         25.0000         
                  1                 
 86                5.232e-10       -4.179e-08         25.0000         
                  1                 
 87                7.024e-10        4.922e-09         25.0000         
                  1                 
 88                7.267e-10        7.659e-09         25.0000         
                  1                 
 89                5.362e-10        5.238e-09         25.0000         
                  1                 
 90                4.680e-10        7.639e-09         25.0000         
                  1                 
 91                6.443e-10        7.411e-09         25.0000         
                  1                 
 92                6.015e-10        8.908e-09         25.0000         
                  1                 
 93                5.164e-10        6.416e-09         25.0000         
                  1                 
 94                3.510e-10        7.465e-09         25.0000         
                  1                 
 95                7.026e-10       -3.190e-08         25.0000         
                  1                 
 96                6.067e-10        1.190e-08         25.0000         
                  1                 
 97                7.060e-10        1.084e-08         25.0000         
                  1                 
 98                4.707e-10        7.024e-09         25.0000         
                  1                 
 99                4.943e-10        4.630e-09         25.0000         
                  1                 
 100               5.891e-10        5.438e-09         25.0000         
                  1                 
