$DATA1 SOURCE='HSPICE' VERSION='F-2011.09 64-BIT'
.TITLE '* include model and subckts'
 index            write1           read1            delay_write1      
                  delay_read1      temper           alter#            
 1                   0.3498           0.3500         1.477e-09        
                   3.658e-09         25.0000        1                 
 2                   0.3499           0.3499         1.015e-09        
                   4.155e-09         25.0000        1                 
 3                   0.3500           0.3498         1.101e-09        
                   5.340e-09         25.0000        1                 
 4                   0.3499           0.3498         7.124e-10        
                   4.987e-09         25.0000        1                 
 5                   0.3499           0.3498         8.097e-10        
                   3.313e-09         25.0000        1                 
 6                   0.3500           0.3498         8.756e-10        
                   4.145e-09         25.0000        1                 
 7                   0.3500           0.3498         1.056e-09        
                   5.082e-09         25.0000        1                 
 8                   0.3500           0.3498         8.154e-10        
                   7.197e-09         25.0000        1                 
 9                   0.3500           0.3498         8.914e-10        
                   6.896e-09         25.0000        1                 
 10                  0.3499           0.3496         9.881e-10        
                   4.443e-09         25.0000        1                 
 11                  0.3500           0.3499         9.125e-10        
                   4.250e-09         25.0000        1                 
 12                  0.3499           0.3499         7.739e-10        
                   3.140e-09         25.0000        1                 
 13                  0.3500           0.3498         8.997e-10        
                   5.169e-09         25.0000        1                 
 14                  0.3499           0.3497         1.172e-09        
                   5.207e-09         25.0000        1                 
 15                  0.3499           0.3499         6.479e-10        
                   4.027e-09         25.0000        1                 
 16                  0.3500           0.3498         8.764e-10        
                   4.475e-09         25.0000        1                 
 17                  0.3499           0.3498         1.151e-09        
                   4.429e-09         25.0000        1                 
 18                  0.3499           0.3498         1.158e-09        
                   4.714e-09         25.0000        1                 
 19                  0.3499           0.3498         1.091e-09        
                     failed          25.0000        1                 
 20                  0.3500           0.3499         8.523e-10        
                   3.699e-09         25.0000        1                 
 21                  0.3500           0.3499         1.703e-09        
                   5.689e-09         25.0000        1                 
 22                  0.3500           0.3497         1.391e-09        
                   4.000e-09         25.0000        1                 
 23                  0.3500           0.3498         9.918e-10        
                   4.446e-09         25.0000        1                 
 24                  0.3500           0.3499         7.299e-10        
                   3.316e-09         25.0000        1                 
 25                  0.3500           0.3499         6.678e-10        
                   4.842e-09         25.0000        1                 
 26                  0.3500           0.3496         6.708e-10        
                   4.865e-09         25.0000        1                 
 27                  0.3499           0.3499         7.312e-10        
                   3.277e-09         25.0000        1                 
 28                  0.3500           0.3499         7.392e-10        
                   3.948e-09         25.0000        1                 
 29                  0.3499           0.3495         1.128e-09        
                   5.545e-09         25.0000        1                 
 30                  0.3499           0.3498         1.037e-09        
                   4.033e-09         25.0000        1                 
 31                  0.3499           0.3497         8.859e-10        
                   7.138e-09         25.0000        1                 
 32                  0.3500           0.3498         7.438e-10        
                   3.266e-09         25.0000        1                 
 33                  0.3500           0.3498         1.141e-09        
                   4.305e-09         25.0000        1                 
 34                  0.3500           0.3498         9.957e-10        
                   3.689e-09         25.0000        1                 
 35                  0.3499           0.3499         7.437e-10        
                   3.954e-09         25.0000        1                 
 36                  0.3499           0.3498         1.056e-09        
                   4.384e-09         25.0000        1                 
 37                  0.3500           0.3499         7.885e-10        
                   4.271e-09         25.0000        1                 
 38                  0.3500           0.3497         1.034e-09        
                   3.652e-09         25.0000        1                 
 39                  0.3499           0.3499         1.280e-09        
                   4.362e-09         25.0000        1                 
 40                  0.3499           0.3499         1.283e-09        
                   4.075e-09         25.0000        1                 
 41                  0.3499           0.3498         9.628e-10        
                   4.328e-09         25.0000        1                 
 42                  0.3500           0.3499         1.387e-09        
                   3.571e-09         25.0000        1                 
 43                  0.3500           0.3497         8.100e-10        
                   4.796e-09         25.0000        1                 
 44                  0.3499           0.3499         9.957e-10        
                   5.838e-09         25.0000        1                 
 45                  0.3500           0.3498         4.073e-08        
                   4.619e-09         25.0000        1                 
 46                  0.3500           0.3494         9.101e-10        
                   6.312e-09         25.0000        1                 
 47                  0.3500           0.3498         7.680e-10        
                   4.911e-09         25.0000        1                 
 48                  0.3500           0.3499         9.456e-10        
                   4.184e-09         25.0000        1                 
 49                  0.3499           0.3498         1.020e-09        
                   5.427e-09         25.0000        1                 
 50                  0.3500           0.3493         8.052e-10        
                   4.472e-09         25.0000        1                 
 51                  0.3499           0.3499         9.025e-10        
                   3.610e-09         25.0000        1                 
 52                  0.3500           0.3498         1.085e-09        
                   4.057e-09         25.0000        1                 
 53                  0.3500           0.3499         8.013e-10        
                   4.984e-09         25.0000        1                 
 54                  0.3499           0.3499         1.059e-09        
                   7.064e-09         25.0000        1                 
 55                  0.3500           0.3499         6.514e-10        
                   4.956e-09         25.0000        1                 
 56                  0.3500           0.3498         1.163e-09        
                   8.507e-09         25.0000        1                 
 57                  0.3500           0.3498         1.010e-09        
                   7.562e-09         25.0000        1                 
 58                  0.3499           0.3499         7.624e-10        
                   5.041e-09         25.0000        1                 
 59                  0.3499           0.3499         8.046e-10        
                   3.867e-09         25.0000        1                 
 60                  0.3500           0.3499         9.411e-10        
                     failed          25.0000        1                 
 61                  0.3499           0.3497         1.146e-09        
                   4.437e-09         25.0000        1                 
 62                  0.3498           0.3497         9.013e-10        
                   4.671e-09         25.0000        1                 
 63                  0.3500           0.3497         1.051e-09        
                   5.652e-09         25.0000        1                 
 64                  0.3500           0.3499         9.046e-10        
                   4.341e-09         25.0000        1                 
 65                  0.3499           0.3498         9.244e-10        
                   3.925e-09         25.0000        1                 
 66                  0.3499           0.3499         9.264e-10        
                   4.191e-09         25.0000        1                 
 67                  0.3498           0.3496         9.833e-10        
                   3.228e-09         25.0000        1                 
 68                  0.3500           0.3498         1.045e-09        
                   5.096e-09         25.0000        1                 
 69                  0.3499           0.3497         1.206e-09        
                   7.067e-09         25.0000        1                 
 70                  0.3499           0.3498         6.344e-10        
                   6.009e-09         25.0000        1                 
 71                  0.3499           0.3499         8.330e-10        
                   5.062e-09         25.0000        1                 
 72                  0.3499           0.3499         8.016e-10        
                   4.711e-09         25.0000        1                 
 73                  0.3500           0.3495         8.499e-10        
                   4.679e-09         25.0000        1                 
 74                  0.3500           0.3498         1.181e-09        
                   5.079e-09         25.0000        1                 
 75                  0.3499           0.3498         1.189e-09        
                   5.040e-09         25.0000        1                 
 76                  0.3500           0.3498         1.065e-09        
                   4.653e-09         25.0000        1                 
 77                  0.3499           0.3498         9.447e-10        
                   4.580e-09         25.0000        1                 
 78                  0.3500           0.3496         8.739e-10        
                   4.538e-09         25.0000        1                 
 79                  0.3499           0.3498         7.040e-10        
                   5.609e-09         25.0000        1                 
 80                  0.3500           0.3498         1.127e-09        
                   3.823e-09         25.0000        1                 
 81                  0.3500           0.3498         5.796e-10        
                   6.223e-09         25.0000        1                 
 82                  0.3500           0.3496         7.203e-10        
                     failed          25.0000        1                 
 83                  0.3499           0.3499         8.949e-10        
                   3.296e-09         25.0000        1                 
 84                  0.3500           0.3497         6.711e-10        
                   4.564e-09         25.0000        1                 
 85                  0.3499           0.3499         9.847e-10        
                   4.874e-09         25.0000        1                 
 86                  0.3500           0.3496         8.005e-10        
                   3.124e-09         25.0000        1                 
 87                  0.3500           0.3499         1.406e-09        
                   3.052e-09         25.0000        1                 
 88                  0.3500           0.3498         1.012e-09        
                   6.786e-09         25.0000        1                 
 89                  0.3500           0.3499         1.173e-09        
                   4.776e-09         25.0000        1                 
 90                  0.3499           0.3499         6.820e-10        
                   5.351e-09         25.0000        1                 
 91                  0.3500           0.3498         1.156e-09        
                   4.203e-09         25.0000        1                 
 92                  0.3500           0.3496         6.459e-10        
                   6.281e-09         25.0000        1                 
 93                  0.3499           0.3497         9.506e-10        
                   3.034e-09         25.0000        1                 
 94                  0.3500           0.3499         6.386e-10        
                   5.470e-09         25.0000        1                 
 95                  0.3500           0.3497         9.784e-10        
                     failed          25.0000        1                 
 96                  0.3500           0.3499         8.166e-10        
                   4.447e-09         25.0000        1                 
 97                  0.3499           0.3498         1.062e-09        
                   5.819e-09         25.0000        1                 
 98                  0.3499           0.3499         1.108e-09        
                   4.164e-09         25.0000        1                 
 99                  0.3500           0.3498         8.890e-10        
                   3.828e-09         25.0000        1                 
 100                 0.3498           0.3499         1.062e-09        
                   7.560e-09         25.0000        1                 
 101                 0.3499           0.3499         7.656e-10        
                   5.829e-09         25.0000        1                 
 102                 0.3500           0.3499         9.653e-10        
                   5.607e-09         25.0000        1                 
 103                 0.3499           0.3499         8.645e-10        
                     failed          25.0000        1                 
 104                 0.3499           0.3497         7.229e-10        
                   5.967e-09         25.0000        1                 
 105                 0.3500           0.3499         9.510e-10        
                   4.566e-09         25.0000        1                 
 106                 0.3499           0.3498         9.631e-10        
                   4.161e-09         25.0000        1                 
 107                 0.3499           0.3499         8.736e-10        
                   3.216e-09         25.0000        1                 
 108                 0.3499           0.3499         9.017e-10        
                   5.403e-09         25.0000        1                 
 109                 0.3499           0.3499         1.230e-09        
                   3.445e-09         25.0000        1                 
 110                 0.3498           0.3499         1.117e-09        
                   4.495e-09         25.0000        1                 
 111                 0.3500           0.3498         7.884e-10        
                   3.153e-09         25.0000        1                 
 112                 0.3499           0.3499         1.049e-09        
                   4.829e-09         25.0000        1                 
 113                 0.3497           0.3498         7.880e-10        
                   3.856e-09         25.0000        1                 
 114                 0.3500           0.3499         1.038e-09        
                   3.523e-09         25.0000        1                 
 115                 0.3499           0.3497         1.058e-09        
                   4.116e-09         25.0000        1                 
 116                 0.3499           0.3499         1.037e-09        
                   4.538e-09         25.0000        1                 
 117                 0.3500           0.3499         8.295e-10        
                   4.170e-09         25.0000        1                 
 118                 0.3498           0.3498         8.624e-10        
                   7.489e-09         25.0000        1                 
 119                 0.3500           0.3498         8.924e-10        
                   4.117e-09         25.0000        1                 
 120                 0.3500           0.3499         6.669e-10        
                   4.356e-09         25.0000        1                 
 121                 0.3499           0.3495         1.244e-09        
                   4.657e-09         25.0000        1                 
 122                 0.3500           0.3499         9.743e-10        
                   4.500e-09         25.0000        1                 
 123                 0.3499           0.3498         7.067e-10        
                   4.201e-09         25.0000        1                 
 124                 0.3499           0.3498         8.657e-10        
                   6.462e-09         25.0000        1                 
 125                 0.3499           0.3497         8.937e-10        
                   9.200e-09         25.0000        1                 
 126                 0.3500           0.3498         8.914e-10        
                   3.850e-09         25.0000        1                 
 127                 0.3499           0.3499         1.174e-09        
                   5.395e-09         25.0000        1                 
 128                 0.3500           0.3499         6.768e-10        
                   5.858e-09         25.0000        1                 
 129                 0.3499           0.3499         8.716e-10        
                   5.145e-09         25.0000        1                 
 130                 0.3499           0.3498         1.237e-09        
                   4.515e-09         25.0000        1                 
 131                 0.3499           0.3498         1.086e-09        
                   4.940e-09         25.0000        1                 
 132                 0.3499           0.3499         7.614e-10        
                   4.097e-09         25.0000        1                 
 133                 0.3500           0.3499         4.293e-10        
                   3.918e-09         25.0000        1                 
 134                 0.3499           0.3498         1.189e-09        
                   4.390e-09         25.0000        1                 
 135                 0.3500           0.3498         7.602e-10        
                   3.745e-09         25.0000        1                 
 136                 0.3499           0.3498         7.914e-10        
                     failed          25.0000        1                 
 137                 0.3499           0.3498         8.821e-10        
                   3.743e-09         25.0000        1                 
 138                 0.3500           0.3499         1.211e-09        
                   6.441e-09         25.0000        1                 
 139                 0.3499           0.3496         8.119e-10        
                   4.962e-09         25.0000        1                 
 140                 0.3499           0.3497         8.623e-10        
                   4.834e-09         25.0000        1                 
 141                 0.3499           0.3499         9.240e-10        
                   4.651e-09         25.0000        1                 
 142                 0.3500           0.3499         1.238e-09        
                   4.690e-09         25.0000        1                 
 143                 0.3498           0.3499         1.050e-09        
                   4.779e-09         25.0000        1                 
 144                 0.3499           0.3495         7.546e-10        
                   5.520e-09         25.0000        1                 
 145                 0.3500           0.3499         7.456e-10        
                   5.705e-09         25.0000        1                 
 146                 0.3499           0.3498         9.393e-10        
                   4.409e-09         25.0000        1                 
 147                 0.3500           0.3498         7.818e-10        
                   6.097e-09         25.0000        1                 
 148                 0.3500           0.3498         7.830e-10        
                   3.814e-09         25.0000        1                 
 149                 0.3499           0.3497         1.143e-09        
                   5.172e-09         25.0000        1                 
 150                 0.3500           0.3497         1.018e-09        
                   3.743e-09         25.0000        1                 
 151                 0.3500           0.3498         8.363e-10        
                   5.045e-09         25.0000        1                 
 152                 0.3500           0.3499         8.962e-10        
                   4.709e-09         25.0000        1                 
 153                 0.3500           0.3499         8.409e-10        
                   3.697e-09         25.0000        1                 
 154                 0.3500           0.3499         8.609e-10        
                   5.111e-09         25.0000        1                 
 155                 0.3500           0.3499         8.998e-10        
                   3.257e-09         25.0000        1                 
 156                 0.3500           0.3498         6.666e-10        
                   4.277e-09         25.0000        1                 
 157                 0.3500           0.3498         9.295e-10        
                   4.772e-09         25.0000        1                 
 158                 0.3500           0.3497         9.732e-10        
                   4.918e-09         25.0000        1                 
 159                 0.3500           0.3499         8.323e-10        
                   4.816e-09         25.0000        1                 
 160                 0.3499           0.3498         7.842e-10        
                   7.974e-09         25.0000        1                 
 161                 0.3500           0.3499         8.814e-10        
                   3.559e-09         25.0000        1                 
 162                 0.3499           0.3498         9.625e-10        
                   3.514e-09         25.0000        1                 
 163                 0.3500           0.3499         6.145e-10        
                   5.984e-09         25.0000        1                 
 164                 0.3500           0.3498         5.918e-10        
                   4.481e-09         25.0000        1                 
 165                 0.3500           0.3498         8.507e-10        
                   4.549e-09         25.0000        1                 
 166                 0.3499           0.3499         1.116e-09        
                   2.975e-09         25.0000        1                 
 167                 0.3499           0.3498         7.941e-10        
                   5.875e-09         25.0000        1                 
 168                 0.3499           0.3498         8.069e-10        
                   5.980e-09         25.0000        1                 
 169                 0.3500           0.3499         7.946e-10        
                   4.498e-09         25.0000        1                 
 170                 0.3500           0.3499         1.309e-09        
                   5.197e-09         25.0000        1                 
 171                 0.3499           0.3498         7.577e-10        
                   6.916e-09         25.0000        1                 
 172                 0.3499           0.3499         7.638e-10        
                   4.916e-09         25.0000        1                 
 173                 0.3500           0.3499         1.255e-09        
                   3.159e-09         25.0000        1                 
 174                 0.3500           0.3499         8.407e-10        
                   3.931e-09         25.0000        1                 
 175                 0.3500           0.3497         8.332e-10        
                   5.039e-09         25.0000        1                 
 176                 0.3500           0.3497         6.985e-10        
                   4.109e-09         25.0000        1                 
 177                 0.3499           0.3499         7.883e-10        
                   5.057e-09         25.0000        1                 
 178                 0.3499           0.3499         8.127e-10        
                   5.477e-09         25.0000        1                 
 179                 0.3499           0.3495         1.179e-09        
                   5.018e-09         25.0000        1                 
 180                 0.3499           0.3499         7.786e-10        
                   4.763e-09         25.0000        1                 
 181                 0.3500           0.3499         6.949e-10        
                   6.087e-09         25.0000        1                 
 182                 0.3500           0.3498         9.244e-10        
                   6.256e-09         25.0000        1                 
 183                 0.3500           0.3496         9.869e-10        
                   3.462e-09         25.0000        1                 
 184                 0.3500           0.3499         8.090e-10        
                   5.560e-09         25.0000        1                 
 185                 0.3500           0.3498         1.082e-09        
                   4.187e-09         25.0000        1                 
 186                 0.3500           0.3496         6.945e-10        
                   6.024e-09         25.0000        1                 
 187                 0.3500           0.3494         8.101e-10        
                   6.772e-09         25.0000        1                 
 188                 0.3500           0.3499         7.596e-10        
                   6.759e-09         25.0000        1                 
 189                 0.3499           0.3497         9.850e-10        
                   5.157e-09         25.0000        1                 
 190                 0.3499           0.3498         7.982e-10        
                   4.065e-09         25.0000        1                 
 191                 0.3499           0.3499         8.745e-10        
                   4.378e-09         25.0000        1                 
 192                 0.3500           0.3499         8.799e-10        
                   3.796e-09         25.0000        1                 
 193                 0.3498           0.3498         1.238e-09        
                   5.320e-09         25.0000        1                 
 194                 0.3500           0.3499         8.389e-10        
                   5.182e-09         25.0000        1                 
 195                 0.3500           0.3499         6.117e-10        
                   4.114e-09         25.0000        1                 
 196                 0.3500           0.3498         7.031e-10        
                   4.690e-09         25.0000        1                 
 197                 0.3499           0.3498         1.190e-09        
                   3.111e-09         25.0000        1                 
 198                 0.3500           0.3498         8.677e-10        
                   4.723e-09         25.0000        1                 
 199                 0.3499           0.3499         1.286e-09        
                   5.998e-09         25.0000        1                 
 200                 0.3499           0.3499         1.131e-09        
                   3.967e-09         25.0000        1                 
 201                 0.3500           0.3499         8.132e-10        
                   4.348e-09         25.0000        1                 
 202                 0.3500           0.3499         1.318e-09        
                   6.086e-09         25.0000        1                 
 203                 0.3499           0.3497         1.135e-09        
                   5.078e-09         25.0000        1                 
 204                 0.3499           0.3499         9.265e-10        
                   5.053e-09         25.0000        1                 
 205                 0.3500           0.3497         1.607e-09        
                   4.774e-09         25.0000        1                 
 206                 0.3500           0.3499         1.173e-09        
                   4.561e-09         25.0000        1                 
 207                 0.3500           0.3498         1.140e-09        
                   4.371e-09         25.0000        1                 
 208                 0.3500           0.3499         6.460e-10        
                   3.899e-09         25.0000        1                 
 209                 0.3499           0.3497         1.073e-09        
                   5.283e-09         25.0000        1                 
 210                 0.3500           0.3499         5.323e-10        
                   4.455e-09         25.0000        1                 
 211                 0.3498           0.3498         9.158e-10        
                   5.764e-09         25.0000        1                 
 212                 0.3500           0.3497         1.068e-09        
                   4.877e-09         25.0000        1                 
 213                 0.3499           0.3497         4.088e-08        
                   4.195e-09         25.0000        1                 
 214                 0.3500           0.3499         8.746e-10        
                   4.929e-09         25.0000        1                 
 215                 0.3499           0.3496         8.813e-10        
                   4.748e-09         25.0000        1                 
 216                 0.3500           0.3498         1.360e-09        
                   6.346e-09         25.0000        1                 
 217                 0.3500           0.3497         9.103e-10        
                   3.319e-09         25.0000        1                 
 218                 0.3500           0.3498         1.203e-09        
                   6.161e-09         25.0000        1                 
 219                 0.3499           0.3498         9.842e-10        
                   3.469e-09         25.0000        1                 
 220                 0.3500           0.3499         7.138e-10        
                   4.960e-09         25.0000        1                 
 221                 0.3500           0.3498         6.829e-10        
                   3.640e-09         25.0000        1                 
 222                 0.3500           0.3498         8.419e-10        
                   6.293e-09         25.0000        1                 
 223                 0.3500           0.3499         1.492e-09        
                   7.084e-09         25.0000        1                 
 224                 0.3499           0.3498         7.047e-10        
                   4.099e-09         25.0000        1                 
 225                 0.3499           0.3498         6.678e-10        
                   4.506e-09         25.0000        1                 
 226                 0.3500           0.3499         7.868e-10        
                   4.990e-09         25.0000        1                 
 227                 0.3499           0.3496         1.583e-09        
                   5.364e-09         25.0000        1                 
 228                 0.3499           0.3498         8.857e-10        
                   3.774e-09         25.0000        1                 
 229                 0.3500           0.3498         6.969e-10        
                   7.455e-09         25.0000        1                 
 230                 0.3500           0.3499         9.207e-10        
                   4.886e-09         25.0000        1                 
 231                 0.3499           0.3499         9.434e-10        
                   4.354e-09         25.0000        1                 
 232                 0.3500           0.3499         8.774e-10        
                   3.359e-09         25.0000        1                 
 233                 0.3500           0.3498         1.102e-09        
                   3.940e-09         25.0000        1                 
 234                 0.3500           0.3498         1.216e-09        
                   7.362e-09         25.0000        1                 
 235                 0.3500           0.3499         9.024e-10        
                   5.458e-09         25.0000        1                 
 236                 0.3500           0.3499         1.009e-09        
                   3.613e-09         25.0000        1                 
 237                 0.3499           0.3498         7.966e-10        
                   4.681e-09         25.0000        1                 
 238                 0.3500           0.3499         7.344e-10        
                   4.930e-09         25.0000        1                 
 239                 0.3499           0.3499         8.093e-10        
                   5.156e-09         25.0000        1                 
 240                 0.3499           0.3498         8.903e-10        
                   3.432e-09         25.0000        1                 
 241                 0.3499           0.3499         6.161e-10        
                   4.367e-09         25.0000        1                 
 242                 0.3499           0.3499         7.737e-10        
                   4.471e-09         25.0000        1                 
 243                 0.3500           0.3499         6.264e-10        
                   4.412e-09         25.0000        1                 
 244                 0.3500           0.3498         7.713e-10        
                   4.694e-09         25.0000        1                 
 245                 0.3500           0.3498         8.281e-10        
                   5.245e-09         25.0000        1                 
 246                 0.3499           0.3498         1.024e-09        
                   3.883e-09         25.0000        1                 
 247                 0.3499           0.3496         1.197e-09        
                   7.311e-09         25.0000        1                 
 248                 0.3500           0.3499         6.677e-10        
                   6.252e-09         25.0000        1                 
 249                 0.3499           0.3499         9.925e-10        
                   5.475e-09         25.0000        1                 
 250                 0.3500           0.3498         7.146e-10        
                   5.773e-09         25.0000        1                 
 251                 0.3500           0.3498         8.348e-10        
                   4.675e-09         25.0000        1                 
 252                 0.3500           0.3496         1.011e-09        
                   3.818e-09         25.0000        1                 
 253                 0.3499           0.3498         8.310e-10        
                   5.501e-09         25.0000        1                 
 254                 0.3500           0.3498         1.149e-09        
                   5.770e-09         25.0000        1                 
 255                 0.3499           0.3498         7.893e-10        
                   5.251e-09         25.0000        1                 
 256                 0.3499           0.3498         1.525e-09        
                   6.174e-09         25.0000        1                 
 257                 0.3500           0.3499         8.057e-10        
                   4.230e-09         25.0000        1                 
 258                 0.3499           0.3497         1.145e-09        
                   3.335e-09         25.0000        1                 
 259                 0.3500           0.3498         7.720e-10        
                   6.935e-09         25.0000        1                 
 260                 0.3499           0.3498         1.153e-09        
                   4.271e-09         25.0000        1                 
 261                 0.3500           0.3499         7.078e-10        
                   3.289e-09         25.0000        1                 
 262                 0.3499           0.3498         1.456e-09        
                   3.468e-09         25.0000        1                 
 263                 0.3499           0.3499         7.695e-10        
                   4.493e-09         25.0000        1                 
 264                 0.3500           0.3498         7.677e-10        
                   6.211e-09         25.0000        1                 
 265                 0.3499           0.3499         1.409e-09        
                   4.129e-09         25.0000        1                 
 266                 0.3500           0.3499         8.169e-10        
                     failed          25.0000        1                 
 267                 0.3499           0.3499         6.695e-10        
                   5.768e-09         25.0000        1                 
 268                 0.3500           0.3499         6.008e-10        
                   4.891e-09         25.0000        1                 
 269                 0.3500           0.3497         9.048e-10        
                   5.096e-09         25.0000        1                 
 270                 0.3499           0.3499         7.413e-10        
                   5.057e-09         25.0000        1                 
 271                 0.3499           0.3499         8.879e-10        
                   4.395e-09         25.0000        1                 
 272                 0.3500           0.3498         8.837e-10        
                   5.598e-09         25.0000        1                 
 273                 0.3499           0.3499         7.755e-10        
                   4.971e-09         25.0000        1                 
 274                 0.3499           0.3498         9.826e-10        
                   4.710e-09         25.0000        1                 
 275                 0.3499           0.3496         1.044e-09        
                   3.017e-09         25.0000        1                 
 276                 0.3499           0.3499         1.067e-09        
                   4.430e-09         25.0000        1                 
 277                 0.3500           0.3498         9.973e-10        
                   5.220e-09         25.0000        1                 
 278                 0.3500           0.3499         7.424e-10        
                   3.320e-09         25.0000        1                 
 279                 0.3499           0.3497         6.908e-10        
                   5.426e-09         25.0000        1                 
 280                 0.3500           0.3499         7.592e-10        
                   4.419e-09         25.0000        1                 
 281                 0.3499           0.3499         8.994e-10        
                   4.897e-09         25.0000        1                 
 282                 0.3500           0.3499         8.923e-10        
                   3.816e-09         25.0000        1                 
 283                 0.3499           0.3499         8.071e-10        
                   4.776e-09         25.0000        1                 
 284                 0.3499           0.3498         1.122e-09        
                   5.348e-09         25.0000        1                 
 285                 0.3499           0.3499         8.173e-10        
                   3.634e-09         25.0000        1                 
 286                 0.3500           0.3498         8.201e-10        
                   4.480e-09         25.0000        1                 
 287                 0.3499           0.3496         1.203e-09        
                   3.942e-09         25.0000        1                 
 288                 0.3500           0.3498         8.210e-10        
                   7.005e-09         25.0000        1                 
 289                 0.3500           0.3496         9.718e-10        
                   7.120e-09         25.0000        1                 
 290                 0.3499           0.3498         8.684e-10        
                   5.188e-09         25.0000        1                 
 291                 0.3498           0.3499         7.408e-10        
                     failed          25.0000        1                 
 292                 0.3500           0.3498         7.976e-10        
                   5.263e-09         25.0000        1                 
 293                 0.3500           0.3499         7.906e-10        
                   5.218e-09         25.0000        1                 
 294                 0.3500           0.3496         7.290e-10        
                   5.672e-09         25.0000        1                 
 295                 0.3499           0.3498         6.692e-10        
                   4.425e-09         25.0000        1                 
 296                 0.3499           0.3496         1.068e-09        
                     failed          25.0000        1                 
 297                 0.3499           0.3499         6.281e-10        
                   3.873e-09         25.0000        1                 
 298                 0.3499           0.3499         8.593e-10        
                   4.714e-09         25.0000        1                 
 299                 0.3499           0.3499         8.815e-10        
                   7.790e-09         25.0000        1                 
 300                 0.3500           0.3498         1.160e-09        
                   4.281e-09         25.0000        1                 
