$DATA1 SOURCE='HSPICE' VERSION='F-2011.09 64-BIT'
.TITLE '* include model and subckts'
 index            delay_write0     delay_read0      temper            
                  alter#            
 1                 5.361e-10        1.774e-08         25.0000         
                  1                 
 2                 5.107e-10        1.023e-08         25.0000         
                  1                 
 3                 5.580e-10        7.403e-09         25.0000         
                  1                 
 4                 3.365e-10        1.268e-08         25.0000         
                  1                 
 5                 4.904e-10        4.878e-09         25.0000         
                  1                 
 6                 6.420e-10        2.612e-08         25.0000         
                  1                 
 7                 7.949e-10        8.605e-09         25.0000         
                  1                 
 8                 5.547e-10        7.246e-09         25.0000         
                  1                 
 9                 7.050e-10        1.474e-08         25.0000         
                  1                 
 10                4.810e-10        7.043e-09         25.0000         
                  1                 
 11                6.076e-10        7.345e-09         25.0000         
                  1                 
 12                5.003e-10        1.144e-08         25.0000         
                  1                 
 13                8.434e-10        1.073e-08         25.0000         
                  1                 
 14                6.615e-10        7.982e-09         25.0000         
                  1                 
 15                3.787e-10        7.107e-09         25.0000         
                  1                 
 16                5.616e-10        7.144e-09         25.0000         
                  1                 
 17                5.775e-10        1.056e-08         25.0000         
                  1                 
 18                5.786e-10        7.492e-09         25.0000         
                  1                 
 19                5.581e-10       -3.076e-08         25.0000         
                  1                 
 20                5.796e-10        8.405e-09         25.0000         
                  1                 
 21                7.826e-10        9.897e-09         25.0000         
                  1                 
 22                6.251e-10        6.386e-09         25.0000         
                  1                 
 23                6.924e-10        8.939e-09         25.0000         
                  1                 
 24                5.445e-10        8.963e-09         25.0000         
                  1                 
 25                5.597e-10        1.134e-08         25.0000         
                  1                 
 26                4.144e-10        8.350e-09         25.0000         
                  1                 
 27                3.542e-10        8.127e-09         25.0000         
                  1                 
 28                5.262e-10        6.864e-09         25.0000         
                  1                 
 29                9.071e-10        7.459e-09         25.0000         
                  1                 
 30                6.372e-10        5.062e-09         25.0000         
                  1                 
 31                5.748e-10        6.280e-09         25.0000         
                  1                 
 32                5.208e-10        7.327e-09         25.0000         
                  1                 
 33                6.599e-10        5.521e-09         25.0000         
                  1                 
 34                5.093e-10        8.215e-09         25.0000         
                  1                 
 35                4.178e-10        1.222e-08         25.0000         
                  1                 
 36                5.049e-10        5.748e-09         25.0000         
                  1                 
 37                4.489e-10        6.729e-09         25.0000         
                  1                 
 38                6.611e-10        7.486e-09         25.0000         
                  1                 
 39                7.021e-10        7.669e-09         25.0000         
                  1                 
 40                7.268e-10        7.781e-09         25.0000         
                  1                 
 41                7.818e-10        5.641e-09         25.0000         
                  1                 
 42                7.187e-10        8.291e-09         25.0000         
                  1                 
 43                5.063e-10        4.428e-09         25.0000         
                  1                 
 44                4.578e-10        1.097e-08         25.0000         
                  1                 
 45                4.576e-10        6.286e-09         25.0000         
                  1                 
 46                6.232e-10        7.800e-09         25.0000         
                  1                 
 47                4.051e-10        9.271e-09         25.0000         
                  1                 
 48                6.541e-10        1.081e-08         25.0000         
                  1                 
 49                5.272e-10        1.182e-08         25.0000         
                  1                 
 50                8.394e-10        1.240e-08         25.0000         
                  1                 
 51                4.711e-10       -4.176e-08         25.0000         
                  1                 
 52                6.477e-10        7.193e-09         25.0000         
                  1                 
 53                5.926e-10        5.298e-09         25.0000         
                  1                 
 54                4.620e-10        8.120e-09         25.0000         
                  1                 
 55                3.732e-10        7.980e-09         25.0000         
                  1                 
 56                5.672e-10        7.205e-09         25.0000         
                  1                 
 57                5.078e-10        8.066e-09         25.0000         
                  1                 
 58                5.311e-10        4.810e-09         25.0000         
                  1                 
 59                7.625e-10        8.396e-09         25.0000         
                  1                 
 60                5.155e-10       -3.335e-08         25.0000         
                  1                 
 61                4.364e-10        8.012e-09         25.0000         
                  1                 
 62                4.784e-10        5.609e-09         25.0000         
                  1                 
 63                7.449e-10        7.697e-09         25.0000         
                  1                 
 64                1.011e-09        7.092e-09         25.0000         
                  1                 
 65                6.476e-10        8.454e-09         25.0000         
                  1                 
 66                4.268e-10        5.629e-09         25.0000         
                  1                 
 67                6.101e-10        5.459e-09         25.0000         
                  1                 
 68                5.691e-10       -4.258e-08         25.0000         
                  1                 
 69                6.699e-10        8.263e-09         25.0000         
                  1                 
 70                4.073e-10        1.008e-08         25.0000         
                  1                 
 71                7.676e-10        7.872e-09         25.0000         
                  1                 
 72                5.142e-10       -4.151e-08         25.0000         
                  1                 
 73                5.439e-10        6.064e-09         25.0000         
                  1                 
 74                6.628e-10        7.441e-09         25.0000         
                  1                 
 75                4.834e-10        1.028e-08         25.0000         
                  1                 
 76                5.743e-10        7.417e-09         25.0000         
                  1                 
 77                5.167e-10        6.804e-09         25.0000         
                  1                 
 78                4.809e-10        6.013e-09         25.0000         
                  1                 
 79                4.287e-10        6.713e-09         25.0000         
                  1                 
 80                5.435e-10        5.171e-09         25.0000         
                  1                 
 81                6.037e-10        5.362e-09         25.0000         
                  1                 
 82                5.623e-10       -3.550e-08         25.0000         
                  1                 
 83                4.743e-10        8.299e-09         25.0000         
                  1                 
 84                4.786e-10        1.197e-08         25.0000         
                  1                 
 85                3.868e-10        1.000e-08         25.0000         
                  1                 
 86                5.245e-10       -4.192e-08         25.0000         
                  1                 
 87                6.967e-10        5.101e-09         25.0000         
                  1                 
 88                7.243e-10        7.642e-09         25.0000         
                  1                 
 89                5.347e-10        5.443e-09         25.0000         
                  1                 
 90                4.669e-10        8.454e-09         25.0000         
                  1                 
 91                6.405e-10        8.318e-09         25.0000         
                  1                 
 92                5.999e-10        1.026e-08         25.0000         
                  1                 
 93                5.164e-10        7.252e-09         25.0000         
                  1                 
 94                3.483e-10        8.031e-09         25.0000         
                  1                 
 95                6.995e-10       -3.176e-08         25.0000         
                  1                 
 96                6.045e-10        1.446e-08         25.0000         
                  1                 
 97                7.032e-10        1.232e-08         25.0000         
                  1                 
 98                4.713e-10        7.614e-09         25.0000         
                  1                 
 99                4.927e-10        4.770e-09         25.0000         
                  1                 
 100               5.877e-10        5.543e-09         25.0000         
                  1                 
