$DATA1 SOURCE='HSPICE' VERSION='F-2011.09 64-BIT'
.TITLE '* include model and subckts'
 index            write0           read0            delay_write0      
                  delay_read0      temper           alter#            
 1                 3.709e-05          0.3499         2.880e-09        
                     failed          25.0000        1                 
 2                 5.304e-05          0.3498         1.965e-09        
                     failed          25.0000        1                 
 3                   0.3498           0.3499           failed         
                     failed          25.0000        1                 
 4                 9.539e-06          0.3498         2.815e-09        
                     failed          25.0000        1                 
 5                 5.276e-05        2.903e-05        2.116e-09        
                   1.215e-08         25.0000        1                 
 6                 3.643e-05          0.3498         1.813e-09        
                     failed          25.0000        1                 
 7                 1.469e-05          0.3498         2.235e-09        
                     failed          25.0000        1                 
 8                 1.677e-05          0.3474         2.258e-09        
                     failed          25.0000        1                 
 9                 5.372e-05          0.3498         2.290e-09        
                     failed          25.0000        1                 
 10                8.516e-06          0.3465         3.323e-09        
                     failed          25.0000        1                 
 11                5.054e-05          0.3497         2.060e-09        
                     failed          25.0000        1                 
 12                1.977e-05          0.3499         1.387e-09        
                     failed          25.0000        1                 
 13                4.179e-05          0.3497         1.965e-09        
                     failed          25.0000        1                 
 14                1.582e-05          0.3498         1.482e-09        
                     failed          25.0000        1                 
 15                2.288e-05          0.3497         1.605e-09        
                     failed          25.0000        1                 
 16                8.814e-06        2.429e-05        1.998e-09        
                   1.681e-08         25.0000        1                 
 17                1.564e-05          0.3263         2.482e-09        
                     failed          25.0000        1                 
 18                7.439e-06          0.3497         1.708e-09        
                     failed          25.0000        1                 
 19                5.632e-05          0.3499         2.933e-09        
                     failed          25.0000        1                 
 20                7.493e-06          0.3499         2.618e-09        
                     failed          25.0000        1                 
 21                3.390e-05          0.3496         2.651e-09        
                     failed          25.0000        1                 
 22                3.083e-05          0.3498         2.139e-09        
                     failed          25.0000        1                 
 23                5.099e-05          0.3498         2.817e-09        
                     failed          25.0000        1                 
 24                2.343e-05          0.3499         2.359e-09        
                     failed          25.0000        1                 
 25                  0.3499           0.3498           failed         
                     failed          25.0000        1                 
 26                  0.3500           0.3497         5.245e-09        
                     failed          25.0000        1                 
 27                4.580e-05          0.3493         2.188e-09        
                     failed          25.0000        1                 
 28                2.279e-05          0.3498         2.527e-09        
                     failed          25.0000        1                 
 29                3.287e-05          0.3495         2.125e-09        
                     failed          25.0000        1                 
 30                1.953e-05          0.3498         2.009e-09        
                     failed          25.0000        1                 
 31                1.713e-05          0.3499         1.888e-09        
                     failed          25.0000        1                 
 32                2.822e-05          0.3499         2.049e-09        
                     failed          25.0000        1                 
 33                2.208e-05          0.3352         2.950e-09        
                     failed          25.0000        1                 
 34                1.148e-05          0.3499         1.972e-09        
                     failed          25.0000        1                 
 35                7.460e-05          0.3498         2.602e-09        
                     failed          25.0000        1                 
 36                2.636e-05          0.3490         1.940e-09        
                     failed          25.0000        1                 
 37                5.424e-05          0.3497         2.245e-09        
                     failed          25.0000        1                 
 38                  0.3499           0.3499           failed         
                     failed          25.0000        1                 
 39                2.861e-05          0.3498         2.350e-09        
                     failed          25.0000        1                 
 40                2.148e-05          0.3499         3.198e-09        
                     failed          25.0000        1                 
 41                1.037e-04          0.3499         2.947e-09        
                     failed          25.0000        1                 
 42                3.979e-05        1.153e-04        2.001e-09        
                   1.914e-08         25.0000        1                 
 43                3.021e-05          0.3498         1.637e-09        
                     failed          25.0000        1                 
 44                1.087e-05          0.3498         1.837e-09        
                     failed          25.0000        1                 
 45                1.994e-05          0.3499         2.460e-09        
                     failed          25.0000        1                 
 46                9.117e-05          0.3497         2.047e-09        
                     failed          25.0000        1                 
 47                1.447e-05          0.3499         2.315e-09        
                     failed          25.0000        1                 
 48                2.723e-05          0.1493         1.957e-09        
                   2.491e-08         25.0000        1                 
 49                5.442e-05          0.3499         2.596e-09        
                     failed          25.0000        1                 
 50                4.927e-05          0.3498         2.176e-09        
                     failed          25.0000        1                 
