$DATA1 SOURCE='HSPICE' VERSION='F-2011.09 64-BIT'
.TITLE '* include model and subckts'
 index            delay_write1     delay_read1      temper            
                  alter#            
 1                 1.411e-09        3.907e-09         25.0000         
                  1                 
 2                 1.046e-09        4.757e-09         25.0000         
                  1                 
 3                 1.126e-09        6.253e-09         25.0000         
                  1                 
 4                 7.592e-10        6.153e-09         25.0000         
                  1                 
 5                 8.691e-10        3.736e-09         25.0000         
                  1                 
 6                 9.439e-10        4.632e-09         25.0000         
                  1                 
 7                 1.162e-09        5.660e-09         25.0000         
                  1                 
 8                 8.913e-10        7.887e-09         25.0000         
                  1                 
 9                 9.490e-10        7.237e-09         25.0000         
                  1                 
 10                1.042e-09        4.736e-09         25.0000         
                  1                 
 11                9.827e-10        4.742e-09         25.0000         
                  1                 
 12                8.395e-10        3.543e-09         25.0000         
                  1                 
 13                9.812e-10        5.559e-09         25.0000         
                  1                 
 14                1.193e-09        5.685e-09         25.0000         
                  1                 
 15                7.084e-10        4.192e-09         25.0000         
                  1                 
 16                9.323e-10        4.716e-09         25.0000         
                  1                 
 17                1.168e-09        4.823e-09         25.0000         
                  1                 
 18                1.171e-09        5.116e-09         25.0000         
                  1                 
 19                1.148e-09          failed          25.0000         
                  1                 
 20                9.332e-10        4.129e-09         25.0000         
                  1                 
 21                1.589e-09        5.910e-09         25.0000         
                  1                 
 22                1.364e-09        4.331e-09         25.0000         
                  1                 
 23                1.053e-09        4.709e-09         25.0000         
                  1                 
 24                7.972e-10        3.589e-09         25.0000         
                  1                 
 25                7.402e-10        5.266e-09         25.0000         
                  1                 
 26                7.563e-10        5.235e-09         25.0000         
                  1                 
 27                7.705e-10        3.557e-09         25.0000         
                  1                 
 28                8.089e-10        4.185e-09         25.0000         
                  1                 
 29                1.234e-09        6.047e-09         25.0000         
                  1                 
 30                1.098e-09        4.689e-09         25.0000         
                  1                 
 31                9.734e-10        7.939e-09         25.0000         
                  1                 
 32                8.182e-10        3.724e-09         25.0000         
                  1                 
 33                1.155e-09        5.184e-09         25.0000         
                  1                 
 34                1.060e-09        3.943e-09         25.0000         
                  1                 
 35                8.084e-10        4.195e-09         25.0000         
                  1                 
 36                1.077e-09        5.065e-09         25.0000         
                  1                 
 37                8.511e-10        4.584e-09         25.0000         
                  1                 
 38                1.042e-09        4.254e-09         25.0000         
                  1                 
 39                1.347e-09        4.636e-09         25.0000         
                  1                 
 40                1.280e-09        4.639e-09         25.0000         
                  1                 
 41                1.051e-09        4.868e-09         25.0000         
                  1                 
 42                1.440e-09        3.942e-09         25.0000         
                  1                 
 43                8.438e-10        5.153e-09         25.0000         
                  1                 
 44                1.031e-09        6.229e-09         25.0000         
                  1                 
 45                7.956e-10        4.913e-09         25.0000         
                  1                 
 46                9.834e-10        6.504e-09         25.0000         
                  1                 
 47                8.172e-10        5.287e-09         25.0000         
                  1                 
 48                9.771e-10        4.563e-09         25.0000         
                  1                 
 49                1.065e-09        5.906e-09         25.0000         
                  1                 
 50                8.577e-10        5.145e-09         25.0000         
                  1                 
 51                9.787e-10        4.045e-09         25.0000         
                  1                 
 52                1.142e-09        4.483e-09         25.0000         
                  1                 
 53                8.969e-10        5.437e-09         25.0000         
                  1                 
 54                1.097e-09        7.431e-09         25.0000         
                  1                 
 55                7.263e-10        5.396e-09         25.0000         
                  1                 
 56                1.164e-09        8.729e-09         25.0000         
                  1                 
 57                1.049e-09        8.585e-09         25.0000         
                  1                 
 58                8.268e-10        5.575e-09         25.0000         
                  1                 
 59                8.752e-10        4.158e-09         25.0000         
                  1                 
 60                1.032e-09          failed          25.0000         
                  1                 
 61                1.132e-09        4.951e-09         25.0000         
                  1                 
 62                9.357e-10        5.156e-09         25.0000         
                  1                 
 63                1.060e-09        6.235e-09         25.0000         
                  1                 
 64                1.021e-09        4.520e-09         25.0000         
                  1                 
 65                9.654e-10        4.417e-09         25.0000         
                  1                 
 66                9.320e-10        4.678e-09         25.0000         
                  1                 
 67                1.060e-09        3.594e-09         25.0000         
                  1                 
 68                1.089e-09        5.267e-09         25.0000         
                  1                 
 69                1.272e-09        7.439e-09         25.0000         
                  1                 
 70                6.839e-10        7.088e-09         25.0000         
                  1                 
 71                9.082e-10        5.964e-09         25.0000         
                  1                 
 72                8.452e-10        5.004e-09         25.0000         
                  1                 
 73                9.334e-10        4.981e-09         25.0000         
                  1                 
 74                1.196e-09        5.609e-09         25.0000         
                  1                 
 75                1.149e-09        5.344e-09         25.0000         
                  1                 
 76                1.086e-09        5.291e-09         25.0000         
                  1                 
 77                9.891e-10        5.133e-09         25.0000         
                  1                 
 78                9.533e-10        4.864e-09         25.0000         
                  1                 
 79                7.715e-10        5.894e-09         25.0000         
                  1                 
 80                1.135e-09        4.387e-09         25.0000         
                  1                 
 81                6.341e-10        6.615e-09         25.0000         
                  1                 
 82                7.773e-10          failed          25.0000         
                  1                 
 83                9.591e-10        3.595e-09         25.0000         
                  1                 
 84                7.487e-10        4.924e-09         25.0000         
                  1                 
 85                1.009e-09        5.585e-09         25.0000         
                  1                 
 86                8.616e-10        3.352e-09         25.0000         
                  1                 
 87                1.418e-09        3.434e-09         25.0000         
                  1                 
 88                1.052e-09        7.306e-09         25.0000         
                  1                 
 89                1.182e-09        5.136e-09         25.0000         
                  1                 
 90                7.748e-10        5.838e-09         25.0000         
                  1                 
 91                1.185e-09        4.719e-09         25.0000         
                  1                 
 92                7.381e-10        6.574e-09         25.0000         
                  1                 
 93                1.004e-09        3.462e-09         25.0000         
                  1                 
 94                6.960e-10        5.949e-09         25.0000         
                  1                 
 95                1.045e-09          failed          25.0000         
                  1                 
 96                8.832e-10        4.859e-09         25.0000         
                  1                 
 97                1.130e-09        6.547e-09         25.0000         
                  1                 
 98                1.129e-09        4.652e-09         25.0000         
                  1                 
 99                9.495e-10        4.217e-09         25.0000         
                  1                 
 100               1.079e-09        8.141e-09         25.0000         
                  1                 
