$DATA1 SOURCE='HSPICE' VERSION='F-2011.09 64-BIT'
.TITLE '* include model and subckts'
 index            delay_write0     delay_read0      temper            
                  alter#            
 1                 5.361e-10        9.806e-09         25.0000         
                  1                 
 2                 5.111e-10        6.211e-09         25.0000         
                  1                 
 3                 5.582e-10        4.646e-09         25.0000         
                  1                 
 4                 3.342e-10        7.290e-09         25.0000         
                  1                 
 5                 4.908e-10        3.072e-09         25.0000         
                  1                 
 6                 6.413e-10        1.214e-08         25.0000         
                  1                 
 7                 7.946e-10        5.149e-09         25.0000         
                  1                 
 8                 5.548e-10        4.762e-09         25.0000         
                  1                 
 9                 7.015e-10        9.451e-09         25.0000         
                  1                 
 10                4.827e-10        4.543e-09         25.0000         
                  1                 
 11                6.077e-10        4.691e-09         25.0000         
                  1                 
 12                5.011e-10        7.209e-09         25.0000         
                  1                 
 13                8.433e-10        6.574e-09         25.0000         
                  1                 
 14                6.609e-10        5.174e-09         25.0000         
                  1                 
 15                3.750e-10        4.702e-09         25.0000         
                  1                 
 16                5.612e-10        4.241e-09         25.0000         
                  1                 
 17                5.808e-10        6.014e-09         25.0000         
                  1                 
 18                5.776e-10        4.477e-09         25.0000         
                  1                 
 19                5.561e-10       -3.459e-08         25.0000         
                  1                 
 20                5.787e-10        5.062e-09         25.0000         
                  1                 
 21                7.826e-10        5.770e-09         25.0000         
                  1                 
 22                6.250e-10        3.934e-09         25.0000         
                  1                 
 23                6.899e-10        5.370e-09         25.0000         
                  1                 
 24                5.432e-10        5.677e-09         25.0000         
                  1                 
 25                5.599e-10        6.829e-09         25.0000         
                  1                 
 26                4.153e-10        5.226e-09         25.0000         
                  1                 
 27                3.528e-10        4.990e-09         25.0000         
                  1                 
 28                5.240e-10        3.951e-09         25.0000         
                  1                 
 29                9.096e-10        5.185e-09         25.0000         
                  1                 
 30                6.372e-10        3.013e-09         25.0000         
                  1                 
 31                5.748e-10        4.072e-09         25.0000         
                  1                 
 32                5.208e-10        4.381e-09         25.0000         
                  1                 
 33                6.600e-10        3.560e-09         25.0000         
                  1                 
 34                5.091e-10        4.999e-09         25.0000         
                  1                 
 35                4.178e-10        7.347e-09         25.0000         
                  1                 
 36                5.057e-10        3.654e-09         25.0000         
                  1                 
 37                4.472e-10        3.863e-09         25.0000         
                  1                 
 38                6.562e-10        4.481e-09         25.0000         
                  1                 
 39                7.018e-10        4.801e-09         25.0000         
                  1                 
 40                7.270e-10        4.889e-09         25.0000         
                  1                 
 41                7.844e-10        3.518e-09         25.0000         
                  1                 
 42                7.178e-10        5.475e-09         25.0000         
                  1                 
 43                5.071e-10        2.759e-09         25.0000         
                  1                 
 44                4.579e-10        6.659e-09         25.0000         
                  1                 
 45                4.569e-10        3.849e-09         25.0000         
                  1                 
 46                6.228e-10        4.750e-09         25.0000         
                  1                 
 47                4.039e-10        6.009e-09         25.0000         
                  1                 
 48                6.539e-10        6.490e-09         25.0000         
                  1                 
 49                5.275e-10        7.044e-09         25.0000         
                  1                 
 50                8.396e-10        7.375e-09         25.0000         
                  1                 
 51                4.716e-10        4.351e-09         25.0000         
                  1                 
 52                6.490e-10        4.418e-09         25.0000         
                  1                 
 53                5.914e-10        3.555e-09         25.0000         
                  1                 
 54                4.595e-10        5.722e-09         25.0000         
                  1                 
 55                3.734e-10        4.945e-09         25.0000         
                  1                 
 56                5.685e-10        4.620e-09         25.0000         
                  1                 
 57                5.049e-10        5.431e-09         25.0000         
                  1                 
 58                5.317e-10        2.933e-09         25.0000         
                  1                 
 59                7.637e-10        5.561e-09         25.0000         
                  1                 
 60                5.155e-10       -3.594e-08         25.0000         
                  1                 
 61                4.353e-10        5.246e-09         25.0000         
                  1                 
 62                4.766e-10        3.634e-09         25.0000         
                  1                 
 63                7.455e-10        4.692e-09         25.0000         
                  1                 
 64                1.010e-09        4.217e-09         25.0000         
                  1                 
 65                6.475e-10        4.971e-09         25.0000         
                  1                 
 66                4.268e-10        3.448e-09         25.0000         
                  1                 
 67                6.133e-10        3.400e-09         25.0000         
                  1                 
 68                5.691e-10       -4.248e-08         25.0000         
                  1                 
 69                6.675e-10        5.367e-09         25.0000         
                  1                 
 70                4.048e-10        6.460e-09         25.0000         
                  1                 
 71                7.675e-10        4.952e-09         25.0000         
                  1                 
 72                5.162e-10        5.111e-09         25.0000         
                  1                 
 73                5.455e-10        3.723e-09         25.0000         
                  1                 
 74                6.634e-10        4.779e-09         25.0000         
                  1                 
 75                4.833e-10        6.771e-09         25.0000         
                  1                 
 76                5.755e-10        4.354e-09         25.0000         
                  1                 
 77                5.172e-10        4.183e-09         25.0000         
                  1                 
 78                4.818e-10        3.785e-09         25.0000         
                  1                 
 79                4.277e-10        4.143e-09         25.0000         
                  1                 
 80                5.432e-10        3.203e-09         25.0000         
                  1                 
 81                6.024e-10        3.347e-09         25.0000         
                  1                 
 82                5.655e-10       -3.708e-08         25.0000         
                  1                 
 83                4.739e-10        4.909e-09         25.0000         
                  1                 
 84                4.786e-10        7.467e-09         25.0000         
                  1                 
 85                3.845e-10        5.815e-09         25.0000         
                  1                 
 86                5.206e-10       -4.144e-08         25.0000         
                  1                 
 87                7.009e-10        3.228e-09         25.0000         
                  1                 
 88                7.243e-10        4.853e-09         25.0000         
                  1                 
 89                5.366e-10        3.464e-09         25.0000         
                  1                 
 90                4.668e-10        4.961e-09         25.0000         
                  1                 
 91                6.421e-10        4.858e-09         25.0000         
                  1                 
 92                6.001e-10        6.109e-09         25.0000         
                  1                 
 93                5.165e-10        4.183e-09         25.0000         
                  1                 
 94                3.513e-10        4.931e-09         25.0000         
                  1                 
 95                6.997e-10       -3.405e-08         25.0000         
                  1                 
 96                6.045e-10        8.333e-09         25.0000         
                  1                 
 97                7.020e-10        7.567e-09         25.0000         
                  1                 
 98                4.712e-10        4.805e-09         25.0000         
                  1                 
 99                4.927e-10        3.164e-09         25.0000         
                  1                 
 100               5.877e-10        3.719e-09         25.0000         
                  1                 
