$DATA1 SOURCE='HSPICE' VERSION='F-2011.09 64-BIT'
.TITLE '* include model and subckts'
 index            delay_write0     delay_read0      temper            
                  alter#            
 1                 5.361e-10        1.460e-08         25.0000         
                  1                 
 2                 5.111e-10        9.005e-09         25.0000         
                  1                 
 3                 5.584e-10        6.592e-09         25.0000         
                  1                 
 4                 3.342e-10        1.077e-08         25.0000         
                  1                 
 5                 4.908e-10        4.289e-09         25.0000         
                  1                 
 6                 6.414e-10        1.802e-08         25.0000         
                  1                 
 7                 7.918e-10        7.485e-09         25.0000         
                  1                 
 8                 5.534e-10        6.598e-09         25.0000         
                  1                 
 9                 7.047e-10        1.341e-08         25.0000         
                  1                 
 10                4.827e-10        6.303e-09         25.0000         
                  1                 
 11                6.055e-10        6.570e-09         25.0000         
                  1                 
 12                5.007e-10        1.051e-08         25.0000         
                  1                 
 13                8.441e-10        9.372e-09         25.0000         
                  1                 
 14                6.613e-10        7.317e-09         25.0000         
                  1                 
 15                3.760e-10        6.579e-09         25.0000         
                  1                 
 16                5.611e-10        6.014e-09         25.0000         
                  1                 
 17                5.775e-10        8.847e-09         25.0000         
                  1                 
 18                5.772e-10        6.414e-09         25.0000         
                  1                 
 19                5.574e-10       -3.210e-08         25.0000         
                  1                 
 20                5.803e-10        7.274e-09         25.0000         
                  1                 
 21                7.819e-10        8.415e-09         25.0000         
                  1                 
 22                6.223e-10        5.528e-09         25.0000         
                  1                 
 23                6.894e-10        7.666e-09         25.0000         
                  1                 
 24                5.451e-10        8.116e-09         25.0000         
                  1                 
 25                5.569e-10        9.843e-09         25.0000         
                  1                 
 26                4.143e-10        7.421e-09         25.0000         
                  1                 
 27                3.522e-10        7.194e-09         25.0000         
                  1                 
 28                5.249e-10        5.750e-09         25.0000         
                  1                 
 29                9.090e-10       -4.107e-08         25.0000         
                  1                 
 30                6.386e-10        4.300e-09         25.0000         
                  1                 
 31                5.749e-10        5.644e-09         25.0000         
                  1                 
 32                5.194e-10        6.390e-09         25.0000         
                  1                 
 33                6.598e-10        4.950e-09         25.0000         
                  1                 
 34                5.076e-10        7.211e-09         25.0000         
                  1                 
 35                4.188e-10        1.062e-08         25.0000         
                  1                 
 36                5.050e-10        5.089e-09         25.0000         
                  1                 
 37                4.461e-10        5.792e-09         25.0000         
                  1                 
 38                6.568e-10        6.451e-09         25.0000         
                  1                 
 39                7.022e-10        6.752e-09         25.0000         
                  1                 
 40                7.280e-10        7.069e-09         25.0000         
                  1                 
 41                7.820e-10        4.928e-09         25.0000         
                  1                 
 42                7.178e-10        7.744e-09         25.0000         
                  1                 
 43                5.083e-10        3.800e-09         25.0000         
                  1                 
 44                4.588e-10        9.580e-09         25.0000         
                  1                 
 45                4.581e-10        5.423e-09         25.0000         
                  1                 
 46                6.229e-10        6.776e-09         25.0000         
                  1                 
 47                4.031e-10        8.425e-09         25.0000         
                  1                 
 48                6.540e-10        9.404e-09         25.0000         
                  1                 
 49                5.266e-10        1.017e-08         25.0000         
                  1                 
 50                8.409e-10        1.080e-08         25.0000         
                  1                 
 51                4.701e-10       -4.171e-08         25.0000         
                  1                 
 52                6.493e-10        6.343e-09         25.0000         
                  1                 
 53                5.915e-10        4.945e-09         25.0000         
                  1                 
 54                4.594e-10        7.858e-09         25.0000         
                  1                 
 55                3.727e-10        7.032e-09         25.0000         
                  1                 
 56                5.679e-10        6.451e-09         25.0000         
                  1                 
 57                5.050e-10        7.583e-09         25.0000         
                  1                 
 58                5.311e-10        4.133e-09         25.0000         
                  1                 
 59                7.640e-10        7.797e-09         25.0000         
                  1                 
 60                5.155e-10       -3.426e-08         25.0000         
                  1                 
 61                4.363e-10        7.445e-09         25.0000         
                  1                 
 62                4.783e-10        5.016e-09         25.0000         
                  1                 
 63                7.447e-10        6.601e-09         25.0000         
                  1                 
 64                1.011e-09        6.002e-09         25.0000         
                  1                 
 65                6.457e-10        7.185e-09         25.0000         
                  1                 
 66                4.308e-10        4.869e-09         25.0000         
                  1                 
 67                6.133e-10        4.777e-09         25.0000         
                  1                 
 68                5.697e-10       -4.241e-08         25.0000         
                  1                 
 69                6.675e-10        7.494e-09         25.0000         
                  1                 
 70                4.084e-10        9.247e-09         25.0000         
                  1                 
 71                7.675e-10        6.992e-09         25.0000         
                  1                 
 72                5.146e-10        7.258e-09         25.0000         
                  1                 
 73                5.443e-10        5.235e-09         25.0000         
                  1                 
 74                6.632e-10        6.729e-09         25.0000         
                  1                 
 75                4.839e-10        9.551e-09         25.0000         
                  1                 
 76                5.748e-10        6.236e-09         25.0000         
                  1                 
 77                5.172e-10        5.886e-09         25.0000         
                  1                 
 78                4.827e-10        5.301e-09         25.0000         
                  1                 
 79                4.283e-10        5.815e-09         25.0000         
                  1                 
 80                5.431e-10        4.460e-09         25.0000         
                  1                 
 81                6.021e-10        4.702e-09         25.0000         
                  1                 
 82                5.646e-10       -3.590e-08         25.0000         
                  1                 
 83                4.763e-10        7.233e-09         25.0000         
                  1                 
 84                4.749e-10        1.068e-08         25.0000         
                  1                 
 85                3.873e-10        8.514e-09         25.0000         
                  1                 
 86                5.243e-10       -4.172e-08         25.0000         
                  1                 
 87                6.989e-10        4.534e-09         25.0000         
                  1                 
 88                7.243e-10        6.882e-09         25.0000         
                  1                 
 89                5.348e-10        4.762e-09         25.0000         
                  1                 
 90                4.680e-10        7.483e-09         25.0000         
                  1                 
 91                6.419e-10        7.063e-09         25.0000         
                  1                 
 92                6.002e-10        8.866e-09         25.0000         
                  1                 
 93                5.165e-10        6.195e-09         25.0000         
                  1                 
 94                3.483e-10        6.986e-09         25.0000         
                  1                 
 95                6.975e-10       -3.188e-08         25.0000         
                  1                 
 96                6.045e-10        1.222e-08         25.0000         
                  1                 
 97                7.012e-10        1.075e-08         25.0000         
                  1                 
 98                4.704e-10        6.853e-09         25.0000         
                  1                 
 99                4.929e-10        4.339e-09         25.0000         
                  1                 
 100               5.877e-10        5.125e-09         25.0000         
                  1                 
