$DATA1 SOURCE='HSPICE' VERSION='F-2011.09 64-BIT'
.TITLE '* include model and subckts'
 index            delay_write1     delay_read1      temper            
                  alter#            
 1                 1.404e-09        4.677e-09         25.0000         
                  1                 
 2                 1.052e-09        6.028e-09         25.0000         
                  1                 
 3                 1.124e-09        8.286e-09         25.0000         
                  1                 
 4                 7.586e-10        8.434e-09         25.0000         
                  1                 
 5                 8.695e-10        4.935e-09         25.0000         
                  1                 
 6                 9.411e-10        6.005e-09         25.0000         
                  1                 
 7                 1.162e-09        6.853e-09         25.0000         
                  1                 
 8                 8.891e-10        8.573e-09         25.0000         
                  1                 
 9                 9.448e-10        6.460e-09         25.0000         
                  1                 
 10                1.039e-09        5.529e-09         25.0000         
                  1                 
 11                9.803e-10        5.911e-09         25.0000         
                  1                 
 12                8.383e-10        4.628e-09         25.0000         
                  1                 
 13                9.782e-10        6.007e-09         25.0000         
                  1                 
 14                1.190e-09        6.660e-09         25.0000         
                  1                 
 15                7.077e-10        4.314e-09         25.0000         
                  1                 
 16                9.300e-10        5.228e-09         25.0000         
                  1                 
 17                1.165e-09        5.877e-09         25.0000         
                  1                 
 18                1.171e-09        5.951e-09         25.0000         
                  1                 
 19                1.145e-09          failed          25.0000         
                  1                 
 20                9.320e-10        5.172e-09         25.0000         
                  1                 
 21                1.586e-09        5.861e-09         25.0000         
                  1                 
 22                1.363e-09        5.428e-09         25.0000         
                  1                 
 23                1.056e-09        5.613e-09         25.0000         
                  1                 
 24                7.963e-10        4.303e-09         25.0000         
                  1                 
 25                7.403e-10        6.312e-09         25.0000         
                  1                 
 26                7.545e-10        6.052e-09         25.0000         
                  1                 
 27                7.732e-10        4.351e-09         25.0000         
                  1                 
 28                8.076e-10        4.768e-09         25.0000         
                  1                 
 29                1.232e-09        6.733e-09         25.0000         
                  1                 
 30                1.094e-09        6.500e-09         25.0000         
                  1                 
 31                9.721e-10        8.315e-09         25.0000         
                  1                 
 32                8.169e-10        5.079e-09         25.0000         
                  1                 
 33                1.157e-09        7.053e-09         25.0000         
                  1                 
 34                1.058e-09        4.385e-09         25.0000         
                  1                 
 35                8.107e-10        4.819e-09         25.0000         
                  1                 
 36                1.077e-09        6.795e-09         25.0000         
                  1                 
 37                8.497e-10        5.441e-09         25.0000         
                  1                 
 38                1.035e-09        5.744e-09         25.0000         
                  1                 
 39                1.345e-09        5.222e-09         25.0000         
                  1                 
 40                1.279e-09        5.971e-09         25.0000         
                  1                 
 41                1.044e-09        6.191e-09         25.0000         
                  1                 
 42                1.436e-09        4.850e-09         25.0000         
                  1                 
 43                8.412e-10        6.114e-09         25.0000         
                  1                 
 44                1.030e-09        6.539e-09         25.0000         
                  1                 
 45                7.948e-10        5.616e-09         25.0000         
                  1                 
 46                9.820e-10        7.057e-09         25.0000         
                  1                 
 47                8.162e-10        6.014e-09         25.0000         
                  1                 
 48                9.771e-10        5.705e-09         25.0000         
                  1                 
 49                1.066e-09        6.766e-09         25.0000         
                  1                 
 50                8.545e-10        6.417e-09         25.0000         
                  1                 
 51                9.766e-10        5.091e-09         25.0000         
                  1                 
 52                1.145e-09        5.237e-09         25.0000         
                  1                 
 53                8.954e-10        6.347e-09         25.0000         
                  1                 
 54                1.092e-09        6.959e-09         25.0000         
                  1                 
 55                7.233e-10        6.250e-09         25.0000         
                  1                 
 56                1.161e-09        7.282e-09         25.0000         
                  1                 
 57                1.040e-09        9.723e-09         25.0000         
                  1                 
 58                8.259e-10        6.688e-09         25.0000         
                  1                 
 59                8.754e-10        4.796e-09         25.0000         
                  1                 
 60                1.031e-09          failed          25.0000         
                  1                 
 61                1.128e-09        6.449e-09         25.0000         
                  1                 
 62                9.326e-10        5.964e-09         25.0000         
                  1                 
 63                1.061e-09        7.244e-09         25.0000         
                  1                 
 64                1.018e-09        5.208e-09         25.0000         
                  1                 
 65                9.672e-10        5.715e-09         25.0000         
                  1                 
 66                9.384e-10        5.951e-09         25.0000         
                  1                 
 67                1.060e-09        4.670e-09         25.0000         
                  1                 
 68                1.087e-09        5.442e-09         25.0000         
                  1                 
 69                1.267e-09        7.170e-09         25.0000         
                  1                 
 70                6.838e-10        8.802e-09         25.0000         
                  1                 
 71                9.070e-10        8.011e-09         25.0000         
                  1                 
 72                8.427e-10        5.404e-09         25.0000         
                  1                 
 73                9.290e-10        5.641e-09         25.0000         
                  1                 
 74                1.200e-09        6.722e-09         25.0000         
                  1                 
 75                1.145e-09        5.574e-09         25.0000         
                  1                 
 76                1.085e-09        6.777e-09         25.0000         
                  1                 
 77                9.881e-10        6.567e-09         25.0000         
                  1                 
 78                9.505e-10        5.651e-09         25.0000         
                  1                 
 79                7.695e-10        6.048e-09         25.0000         
                  1                 
 80                1.132e-09        5.754e-09         25.0000         
                  1                 
 81                6.284e-10        6.980e-09         25.0000         
                  1                 
 82                7.852e-10          failed          25.0000         
                  1                 
 83                9.588e-10        4.560e-09         25.0000         
                  1                 
 84                7.503e-10        5.932e-09         25.0000         
                  1                 
 85                1.007e-09        7.248e-09         25.0000         
                  1                 
 86                8.552e-10        4.129e-09         25.0000         
                  1                 
 87                1.417e-09        4.590e-09         25.0000         
                  1                 
 88                1.049e-09        7.805e-09         25.0000         
                  1                 
 89                1.178e-09        5.837e-09         25.0000         
                  1                 
 90                7.742e-10        6.675e-09         25.0000         
                  1                 
 91                1.185e-09        5.972e-09         25.0000         
                  1                 
 92                7.371e-10        6.753e-09         25.0000         
                  1                 
 93                1.004e-09        4.663e-09         25.0000         
                  1                 
 94                6.947e-10        6.809e-09         25.0000         
                  1                 
 95                1.044e-09          failed          25.0000         
                  1                 
 96                8.818e-10        5.965e-09         25.0000         
                  1                 
 97                1.127e-09        7.712e-09         25.0000         
                  1                 
 98                1.131e-09        5.991e-09         25.0000         
                  1                 
 99                9.495e-10        5.379e-09         25.0000         
                  1                 
 100               1.072e-09        8.296e-09         25.0000         
                  1                 
 101               8.393e-10        7.449e-09         25.0000         
                  1                 
 102               1.005e-09        6.496e-09         25.0000         
                  1                 
 103               8.925e-10          failed          25.0000         
                  1                 
 104               7.753e-10        7.325e-09         25.0000         
                  1                 
 105               1.075e-09        4.926e-09         25.0000         
                  1                 
 106               1.019e-09        5.285e-09         25.0000         
                  1                 
 107               9.174e-10        4.389e-09         25.0000         
                  1                 
 108               9.369e-10        6.409e-09         25.0000         
                  1                 
 109               1.267e-09        5.432e-09         25.0000         
                  1                 
 110               1.188e-09        4.941e-09         25.0000         
                  1                 
 111               8.815e-10        4.671e-09         25.0000         
                  1                 
 112               1.097e-09        6.587e-09         25.0000         
                  1                 
 113               8.287e-10        5.447e-09         25.0000         
                  1                 
 114               1.028e-09        4.626e-09         25.0000         
                  1                 
 115               1.090e-09        5.863e-09         25.0000         
                  1                 
 116               1.140e-09        5.647e-09         25.0000         
                  1                 
 117               8.888e-10        6.622e-09         25.0000         
                  1                 
 118               9.238e-10        6.947e-09         25.0000         
                  1                 
 119               9.611e-10        6.440e-09         25.0000         
                  1                 
 120               7.193e-10        6.028e-09         25.0000         
                  1                 
 121               1.252e-09        5.700e-09         25.0000         
                  1                 
 122               1.022e-09        5.180e-09         25.0000         
                  1                 
 123               7.504e-10        5.616e-09         25.0000         
                  1                 
 124               9.397e-10        9.756e-09         25.0000         
                  1                 
 125               9.577e-10        8.903e-09         25.0000         
                  1                 
 126               9.152e-10        4.886e-09         25.0000         
                  1                 
 127               1.199e-09        6.001e-09         25.0000         
                  1                 
 128               7.194e-10        7.384e-09         25.0000         
                  1                 
 129               9.057e-10        7.729e-09         25.0000         
                  1                 
 130               1.282e-09        6.189e-09         25.0000         
                  1                 
 131               1.134e-09        5.844e-09         25.0000         
                  1                 
 132               8.260e-10        5.615e-09         25.0000         
                  1                 
 133               4.914e-10        6.490e-09         25.0000         
                  1                 
 134               1.188e-09        6.794e-09         25.0000         
                  1                 
 135               8.344e-10        5.338e-09         25.0000         
                  1                 
 136               8.541e-10          failed          25.0000         
                  1                 
 137               9.528e-10        4.737e-09         25.0000         
                  1                 
 138               1.289e-09        6.906e-09         25.0000         
                  1                 
 139               8.650e-10        5.539e-09         25.0000         
                  1                 
 140               8.888e-10        5.695e-09         25.0000         
                  1                 
 141               9.977e-10        6.105e-09         25.0000         
                  1                 
 142               1.182e-09        5.841e-09         25.0000         
                  1                 
 143               1.078e-09        6.266e-09         25.0000         
                  1                 
 144               8.202e-10        8.950e-09         25.0000         
                  1                 
 145               7.954e-10        7.711e-09         25.0000         
                  1                 
 146               1.021e-09        6.376e-09         25.0000         
                  1                 
 147               8.550e-10        6.827e-09         25.0000         
                  1                 
 148               8.479e-10        4.861e-09         25.0000         
                  1                 
 149               1.165e-09        6.207e-09         25.0000         
                  1                 
 150               1.032e-09        5.051e-09         25.0000         
                  1                 
 151               8.929e-10        7.807e-09         25.0000         
                  1                 
 152               9.333e-10        5.873e-09         25.0000         
                  1                 
 153               9.142e-10        5.365e-09         25.0000         
                  1                 
 154               9.174e-10        6.376e-09         25.0000         
                  1                 
 155               9.713e-10        4.437e-09         25.0000         
                  1                 
 156               7.487e-10        6.300e-09         25.0000         
                  1                 
 157               9.951e-10        5.616e-09         25.0000         
                  1                 
 158               1.023e-09        6.239e-09         25.0000         
                  1                 
 159               9.189e-10        6.322e-09         25.0000         
                  1                 
 160               8.358e-10        7.967e-09         25.0000         
                  1                 
 161               9.469e-10        4.028e-09         25.0000         
                  1                 
 162               1.058e-09        5.448e-09         25.0000         
                  1                 
 163               6.950e-10        6.462e-09         25.0000         
                  1                 
 164               6.497e-10        6.851e-09         25.0000         
                  1                 
 165               9.165e-10        5.462e-09         25.0000         
                  1                 
 166               1.103e-09        4.400e-09         25.0000         
                  1                 
 167               8.482e-10        7.135e-09         25.0000         
                  1                 
 168               8.699e-10        7.626e-09         25.0000         
                  1                 
 169               8.478e-10        6.008e-09         25.0000         
                  1                 
 170               1.320e-09        7.654e-09         25.0000         
                  1                 
 171               7.988e-10        7.783e-09         25.0000         
                  1                 
 172               8.820e-10        6.217e-09         25.0000         
                  1                 
 173               1.278e-09        4.408e-09         25.0000         
                  1                 
 174               8.988e-10        5.400e-09         25.0000         
                  1                 
 175               8.734e-10        7.195e-09         25.0000         
                  1                 
 176               7.664e-10        5.019e-09         25.0000         
                  1                 
 177               8.623e-10        6.243e-09         25.0000         
                  1                 
 178               8.475e-10        6.049e-09         25.0000         
                  1                 
 179               1.132e-09        6.150e-09         25.0000         
                  1                 
 180               8.192e-10        5.454e-09         25.0000         
                  1                 
 181               7.730e-10        7.385e-09         25.0000         
                  1                 
 182               9.585e-10        8.379e-09         25.0000         
                  1                 
 183               1.050e-09        5.135e-09         25.0000         
                  1                 
 184               8.292e-10        6.239e-09         25.0000         
                  1                 
 185               1.077e-09        5.461e-09         25.0000         
                  1                 
 186               7.635e-10        8.172e-09         25.0000         
                  1                 
 187               8.820e-10        9.638e-09         25.0000         
                  1                 
 188               8.644e-10        8.655e-09         25.0000         
                  1                 
 189               1.052e-09        7.080e-09         25.0000         
                  1                 
 190               8.556e-10        5.071e-09         25.0000         
                  1                 
 191               9.167e-10        5.742e-09         25.0000         
                  1                 
 192               8.990e-10        5.241e-09         25.0000         
                  1                 
 193               1.342e-09        5.981e-09         25.0000         
                  1                 
 194               8.694e-10        6.667e-09         25.0000         
                  1                 
 195               6.782e-10        5.302e-09         25.0000         
                  1                 
 196               7.548e-10        5.711e-09         25.0000         
                  1                 
 197               1.191e-09        4.469e-09         25.0000         
                  1                 
 198               9.147e-10        6.126e-09         25.0000         
                  1                 
 199               1.277e-09        7.194e-09         25.0000         
                  1                 
 200               1.142e-09        4.506e-09         25.0000         
                  1                 
 201               8.891e-10        5.615e-09         25.0000         
                  1                 
 202               1.302e-09        6.820e-09         25.0000         
                  1                 
 203               1.118e-09        6.502e-09         25.0000         
                  1                 
 204               9.749e-10        6.331e-09         25.0000         
                  1                 
 205               1.622e-09        5.914e-09         25.0000         
                  1                 
 206               1.233e-09        5.687e-09         25.0000         
                  1                 
 207               1.142e-09        6.316e-09         25.0000         
                  1                 
 208               7.196e-10        5.046e-09         25.0000         
                  1                 
 209               1.129e-09        7.149e-09         25.0000         
                  1                 
 210               6.041e-10        5.595e-09         25.0000         
                  1                 
 211               9.691e-10        8.259e-09         25.0000         
                  1                 
 212               1.140e-09        7.352e-09         25.0000         
                  1                 
 213               9.838e-10        5.551e-09         25.0000         
                  1                 
 214               9.471e-10        5.657e-09         25.0000         
                  1                 
 215               9.177e-10        7.032e-09         25.0000         
                  1                 
 216               1.344e-09        7.096e-09         25.0000         
                  1                 
 217               9.735e-10        4.809e-09         25.0000         
                  1                 
 218               1.278e-09        7.598e-09         25.0000         
                  1                 
 219               1.006e-09        5.309e-09         25.0000         
                  1                 
 220               7.879e-10        7.586e-09         25.0000         
                  1                 
 221               7.719e-10        4.583e-09         25.0000         
                  1                 
 222               9.231e-10        6.744e-09         25.0000         
                  1                 
 223               1.428e-09        8.135e-09         25.0000         
                  1                 
 224               7.761e-10        5.147e-09         25.0000         
                  1                 
 225               7.281e-10        6.282e-09         25.0000         
                  1                 
 226               8.636e-10        6.919e-09         25.0000         
                  1                 
 227               1.569e-09        7.112e-09         25.0000         
                  1                 
 228               9.558e-10        4.762e-09         25.0000         
                  1                 
 229               7.362e-10        7.902e-09         25.0000         
                  1                 
 230               9.972e-10        6.591e-09         25.0000         
                  1                 
 231               9.605e-10        5.434e-09         25.0000         
                  1                 
 232               9.337e-10        4.791e-09         25.0000         
                  1                 
 233               1.117e-09        6.878e-09         25.0000         
                  1                 
 234               1.265e-09        7.364e-09         25.0000         
                  1                 
 235               9.693e-10        7.743e-09         25.0000         
                  1                 
 236               1.049e-09        5.153e-09         25.0000         
                  1                 
 237               8.613e-10        5.549e-09         25.0000         
                  1                 
 238               8.238e-10        7.989e-09         25.0000         
                  1                 
 239               8.839e-10        6.302e-09         25.0000         
                  1                 
 240               9.272e-10        5.312e-09         25.0000         
                  1                 
 241               6.925e-10        6.274e-09         25.0000         
                  1                 
 242               8.296e-10        5.625e-09         25.0000         
                  1                 
 243               6.922e-10        5.082e-09         25.0000         
                  1                 
 244               8.415e-10        5.520e-09         25.0000         
                  1                 
 245               9.322e-10        6.336e-09         25.0000         
                  1                 
 246               1.060e-09        4.841e-09         25.0000         
                  1                 
 247               1.224e-09        8.174e-09         25.0000         
                  1                 
 248               7.204e-10        7.901e-09         25.0000         
                  1                 
 249               1.027e-09        7.003e-09         25.0000         
                  1                 
 250               7.837e-10        6.483e-09         25.0000         
                  1                 
 251               8.971e-10        6.509e-09         25.0000         
                  1                 
 252               1.055e-09        5.454e-09         25.0000         
                  1                 
 253               8.791e-10        6.818e-09         25.0000         
                  1                 
 254               1.201e-09        6.799e-09         25.0000         
                  1                 
 255               8.716e-10        6.422e-09         25.0000         
                  1                 
 256               1.430e-09        6.548e-09         25.0000         
                  1                 
 257               8.457e-10        5.578e-09         25.0000         
                  1                 
 258               1.145e-09        4.888e-09         25.0000         
                  1                 
 259               8.471e-10        8.073e-09         25.0000         
                  1                 
 260               1.135e-09        5.141e-09         25.0000         
                  1                 
 261               7.872e-10        4.712e-09         25.0000         
                  1                 
 262               1.378e-09        5.170e-09         25.0000         
                  1                 
 263               8.584e-10        5.339e-09         25.0000         
                  1                 
 264               8.717e-10        6.721e-09         25.0000         
                  1                 
 265               1.492e-09        4.673e-09         25.0000         
                  1                 
 266               8.661e-10          failed          25.0000         
                  1                 
 267               7.252e-10        5.896e-09         25.0000         
                  1                 
 268               6.520e-10        7.174e-09         25.0000         
                  1                 
 269               9.309e-10        6.585e-09         25.0000         
                  1                 
 270               8.005e-10        6.471e-09         25.0000         
                  1                 
 271               9.214e-10        5.602e-09         25.0000         
                  1                 
 272               9.665e-10        7.078e-09         25.0000         
                  1                 
 273               8.504e-10        7.261e-09         25.0000         
                  1                 
 274               1.032e-09        5.542e-09         25.0000         
                  1                 
 275               1.057e-09        4.162e-09         25.0000         
                  1                 
 276               1.057e-09        5.832e-09         25.0000         
                  1                 
 277               1.034e-09        6.411e-09         25.0000         
                  1                 
 278               7.950e-10        5.041e-09         25.0000         
                  1                 
 279               7.680e-10        6.868e-09         25.0000         
                  1                 
 280               8.449e-10        6.189e-09         25.0000         
                  1                 
 281               9.303e-10        5.725e-09         25.0000         
                  1                 
 282               9.923e-10        6.452e-09         25.0000         
                  1                 
 283               8.724e-10        7.735e-09         25.0000         
                  1                 
 284               1.171e-09        6.792e-09         25.0000         
                  1                 
 285               8.606e-10        5.476e-09         25.0000         
                  1                 
 286               8.839e-10        6.519e-09         25.0000         
                  1                 
 287               1.306e-09        4.909e-09         25.0000         
                  1                 
 288               8.861e-10        7.560e-09         25.0000         
                  1                 
 289               1.043e-09        7.767e-09         25.0000         
                  1                 
 290               9.589e-10        6.419e-09         25.0000         
                  1                 
 291               8.354e-10          failed          25.0000         
                  1                 
 292               8.829e-10        7.522e-09         25.0000         
                  1                 
 293               8.564e-10        7.103e-09         25.0000         
                  1                 
 294               7.990e-10        7.804e-09         25.0000         
                  1                 
 295               7.444e-10        7.391e-09         25.0000         
                  1                 
 296               1.143e-09          failed          25.0000         
                  1                 
 297               6.894e-10        5.629e-09         25.0000         
                  1                 
 298               9.413e-10        6.507e-09         25.0000         
                  1                 
 299               9.194e-10        7.912e-09         25.0000         
                  1                 
 300               1.194e-09        5.132e-09         25.0000         
                  1                 
