$DATA1 SOURCE='HSPICE' VERSION='F-2011.09 64-BIT'
.TITLE '* include model and subckts'
 index            delay_write0     delay_read0      temper            
                  alter#            
 1                 5.698e-10       -3.510e-08         25.0000         
                  1                 
 2                 2.960e-10        2.740e-09         25.0000         
                  1                 
 3                 1.528e-09        1.188e-08         25.0000         
                  1                 
 4                 1.374e-09       -2.216e-08         25.0000         
                  1                 
 5                 2.656e-10        2.136e-09         25.0000         
                  1                 
 6                 6.906e-10       -3.284e-08         25.0000         
                  1                 
 7                 2.896e-10        2.437e-09         25.0000         
                  1                 
 8                 4.009e-10        5.404e-09         25.0000         
                  1                 
 9                 4.413e-10        5.728e-09         25.0000         
                  1                 
 10                9.884e-10       -3.129e-08         25.0000         
                  1                 
 11                2.200e-10       -3.772e-08         25.0000         
                  1                 
 12                3.079e-09       -3.280e-08         25.0000         
                  1                 
 13                4.146e-10        4.181e-09         25.0000         
                  1                 
 14                3.435e-10        2.466e-09         25.0000         
                  1                 
 15                3.194e-10        3.731e-09         25.0000         
                  1                 
 16                5.916e-10        5.232e-09         25.0000         
                  1                 
 17                5.545e-10        6.064e-09         25.0000         
                  1                 
 18                3.368e-10        3.162e-09         25.0000         
                  1                 
 19                4.655e-10        4.157e-09         25.0000         
                  1                 
 20                4.434e-10        5.122e-09         25.0000         
                  1                 
 21                3.042e-10        3.025e-09         25.0000         
                  1                 
 22                4.969e-10        5.251e-09         25.0000         
                  1                 
 23                1.312e-09        1.255e-08         25.0000         
                  1                 
 24                2.915e-10        2.893e-09         25.0000         
                  1                 
 25                6.555e-10       -3.493e-08         25.0000         
                  1                 
 26                3.573e-10        3.826e-09         25.0000         
                  1                 
 27                1.147e-09       -3.040e-08         25.0000         
                  1                 
 28                1.560e-10       -3.865e-08         25.0000         
                  1                 
 29                5.363e-10       -3.575e-08         25.0000         
                  1                 
 30                1.962e-10        1.500e-09         25.0000         
                  1                 
 31                3.417e-10        3.073e-09         25.0000         
                  1                 
 32                4.190e-10        5.077e-09         25.0000         
                  1                 
 33                3.718e-10        3.990e-09         25.0000         
                  1                 
 34                1.104e-09       -2.608e-08         25.0000         
                  1                 
 35                3.437e-10        3.002e-09         25.0000         
                  1                 
 36                2.540e-10        2.499e-09         25.0000         
                  1                 
 37                4.643e-10        4.675e-09         25.0000         
                  1                 
 38                2.272e-10        2.632e-09         25.0000         
                  1                 
 39                3.159e-10        3.285e-09         25.0000         
                  1                 
 40                1.110e-09       -2.832e-08         25.0000         
                  1                 
 41                3.037e-10       -3.622e-08         25.0000         
                  1                 
 42                4.934e-10        5.582e-09         25.0000         
                  1                 
 43                3.721e-10        3.805e-09         25.0000         
                  1                 
 44                2.127e-10        1.834e-09         25.0000         
                  1                 
 45                5.981e-10        6.681e-09         25.0000         
                  1                 
 46                5.279e-10        4.648e-09         25.0000         
                  1                 
 47                5.141e-10        5.379e-09         25.0000         
                  1                 
 48                5.382e-10        4.147e-09         25.0000         
                  1                 
 49                3.589e-10        4.136e-09         25.0000         
                  1                 
 50                3.104e-10        3.047e-09         25.0000         
                  1                 
 51                5.264e-10       -3.626e-08         25.0000         
                  1                 
 52                4.228e-10        4.707e-09         25.0000         
                  1                 
 53                6.539e-10        7.615e-09         25.0000         
                  1                 
 54                6.219e-10       -3.426e-08         25.0000         
                  1                 
 55                2.536e-10        2.408e-09         25.0000         
                  1                 
 56                5.744e-10       -3.421e-08         25.0000         
                  1                 
 57                1.761e-10        1.785e-09         25.0000         
                  1                 
 58                4.460e-10        4.748e-09         25.0000         
                  1                 
 59                4.621e-10        6.485e-09         25.0000         
                  1                 
 60                2.885e-10        2.964e-09         25.0000         
                  1                 
 61                7.725e-10       -3.203e-08         25.0000         
                  1                 
 62                2.528e-10        2.719e-09         25.0000         
                  1                 
 63                3.251e-10        3.606e-09         25.0000         
                  1                 
 64                1.965e-10        1.788e-09         25.0000         
                  1                 
 65                4.633e-10        5.423e-09         25.0000         
                  1                 
 66                2.860e-10        3.272e-09         25.0000         
                  1                 
 67                2.797e-10        2.601e-09         25.0000         
                  1                 
 68                4.570e-10        5.978e-09         25.0000         
                  1                 
 69                3.898e-10        3.797e-09         25.0000         
                  1                 
 70                9.167e-10       -3.087e-08         25.0000         
                  1                 
 71                6.257e-10        8.437e-09         25.0000         
                  1                 
 72                8.515e-10       -3.122e-08         25.0000         
                  1                 
 73                3.870e-10        4.860e-09         25.0000         
                  1                 
 74                9.061e-10       -2.965e-08         25.0000         
                  1                 
 75                3.553e-10        3.552e-09         25.0000         
                  1                 
 76                2.474e-10        2.885e-09         25.0000         
                  1                 
 77                7.106e-10       -3.162e-08         25.0000         
                  1                 
 78                8.162e-10       -3.420e-08         25.0000         
                  1                 
 79                2.512e-10        2.379e-09         25.0000         
                  1                 
 80                4.168e-10        4.019e-09         25.0000         
                  1                 
 81                5.271e-10        6.538e-09         25.0000         
                  1                 
 82                7.243e-10       -3.263e-08         25.0000         
                  1                 
 83                6.036e-10        8.241e-09         25.0000         
                  1                 
 84                4.761e-10        5.307e-09         25.0000         
                  1                 
 85                6.246e-10        7.827e-09         25.0000         
                  1                 
 86                4.725e-10        6.195e-09         25.0000         
                  1                 
 87                3.452e-10        3.028e-09         25.0000         
                  1                 
 88                4.630e-10        5.751e-09         25.0000         
                  1                 
 89                6.550e-10        8.542e-09         25.0000         
                  1                 
 90                2.216e-10       -3.795e-08         25.0000         
                  1                 
 91                4.638e-10        4.473e-09         25.0000         
                  1                 
 92                6.629e-10       -3.495e-08         25.0000         
                  1                 
 93                1.290e-09       -2.556e-08         25.0000         
                  1                 
 94                4.819e-10        4.126e-09         25.0000         
                  1                 
 95                2.623e-09       -3.510e-08         25.0000         
                  1                 
 96                4.203e-10        3.653e-09         25.0000         
                  1                 
 97                2.811e-10       -3.681e-08         25.0000         
                  1                 
 98                4.526e-10        4.460e-09         25.0000         
                  1                 
 99                1.242e-09        1.132e-08         25.0000         
                  1                 
 100               5.285e-10       -3.214e-08         25.0000         
                  1                 
