$DATA1 SOURCE='HSPICE' VERSION='F-2011.09 64-BIT'
.TITLE '* include model and subckts'
 index            delay_write1     delay_read1      temper            
                  alter#            
 1                 1.646e-09        3.643e-09         25.0000         
                  1                 
 2                 1.126e-09        4.160e-09         25.0000         
                  1                 
 3                 1.254e-09        5.336e-09         25.0000         
                  1                 
 4                 7.753e-10        5.001e-09         25.0000         
                  1                 
 5                 9.063e-10        3.323e-09         25.0000         
                  1                 
 6                 9.770e-10        4.078e-09         25.0000         
                  1                 
 7                 1.188e-09        5.099e-09         25.0000         
                  1                 
 8                 9.090e-10        7.204e-09         25.0000         
                  1                 
 9                 1.009e-09        6.881e-09         25.0000         
                  1                 
 10                1.068e-09        4.449e-09         25.0000         
                  1                 
 11                9.920e-10        4.258e-09         25.0000         
                  1                 
 12                8.313e-10        3.143e-09         25.0000         
                  1                 
 13                1.042e-09        5.197e-09         25.0000         
                  1                 
 14                1.280e-09        5.201e-09         25.0000         
                  1                 
 15                6.952e-10        3.987e-09         25.0000         
                  1                 
 16                9.542e-10        4.464e-09         25.0000         
                  1                 
 17                1.274e-09        4.426e-09         25.0000         
                  1                 
 18                1.377e-09        4.731e-09         25.0000         
                  1                 
 19                1.210e-09          failed          25.0000         
                  1                 
 20                9.319e-10        3.716e-09         25.0000         
                  1                 
 21                2.053e-09        5.661e-09         25.0000         
                  1                 
 22                1.586e-09        3.918e-09         25.0000         
                  1                 
 23                1.105e-09        4.448e-09         25.0000         
                  1                 
 24                8.180e-10        3.324e-09         25.0000         
                  1                 
 25                7.283e-10        4.846e-09         25.0000         
                  1                 
 26                7.404e-10        4.867e-09         25.0000         
                  1                 
 27                8.118e-10        3.285e-09         25.0000         
                  1                 
 28                8.155e-10        3.984e-09         25.0000         
                  1                 
 29                1.263e-09        5.535e-09         25.0000         
                  1                 
 30                1.184e-09        4.115e-09         25.0000         
                  1                 
 31                9.745e-10        7.298e-09         25.0000         
                  1                 
 32                8.167e-10        3.268e-09         25.0000         
                  1                 
 33                1.304e-09        4.310e-09         25.0000         
                  1                 
 34                1.087e-09        3.690e-09         25.0000         
                  1                 
 35                8.028e-10        3.957e-09         25.0000         
                  1                 
 36                1.141e-09        4.390e-09         25.0000         
                  1                 
 37                8.700e-10        4.249e-09         25.0000         
                  1                 
 38                1.152e-09        3.651e-09         25.0000         
                  1                 
 39                1.410e-09        4.358e-09         25.0000         
                  1                 
 40                1.451e-09        4.084e-09         25.0000         
                  1                 
 41                1.083e-09        4.333e-09         25.0000         
                  1                 
 42                1.544e-09        3.580e-09         25.0000         
                  1                 
 43                9.113e-10        4.784e-09         25.0000         
                  1                 
 44                1.094e-09        5.841e-09         25.0000         
                  1                 
 45                7.834e-10        4.602e-09         25.0000         
                  1                 
 46                1.005e-09        6.135e-09         25.0000         
                  1                 
 47                8.259e-10        4.909e-09         25.0000         
                  1                 
 48                1.057e-09        4.184e-09         25.0000         
                  1                 
 49                1.159e-09        5.431e-09         25.0000         
                  1                 
 50                8.754e-10        4.485e-09         25.0000         
                  1                 
 51                9.715e-10        3.621e-09         25.0000         
                  1                 
 52                1.198e-09        4.110e-09         25.0000         
                  1                 
 53                8.745e-10        4.996e-09         25.0000         
                  1                 
 54                1.199e-09        7.092e-09         25.0000         
                  1                 
 55                7.085e-10        4.951e-09         25.0000         
                  1                 
 56                1.250e-09        8.477e-09         25.0000         
                  1                 
 57                1.143e-09        7.557e-09         25.0000         
                  1                 
 58                8.512e-10        5.067e-09         25.0000         
                  1                 
 59                8.876e-10        3.897e-09         25.0000         
                  1                 
 60                1.029e-09          failed          25.0000         
                  1                 
 61                1.289e-09        4.346e-09         25.0000         
                  1                 
 62                9.867e-10        4.795e-09         25.0000         
                  1                 
 63                1.194e-09        5.637e-09         25.0000         
                  1                 
 64                1.028e-09        4.221e-09         25.0000         
                  1                 
 65                1.031e-09        3.848e-09         25.0000         
                  1                 
 66                1.008e-09        4.166e-09         25.0000         
                  1                 
 67                1.090e-09        3.231e-09         25.0000         
                  1                 
 68                1.169e-09        5.075e-09         25.0000         
                  1                 
 69                1.396e-09        7.078e-09         25.0000         
                  1                 
 70                7.139e-10        6.016e-09         25.0000         
                  1                 
 71                9.138e-10        5.067e-09         25.0000         
                  1                 
 72                8.780e-10        4.720e-09         25.0000         
                  1                 
 73                9.342e-10        4.693e-09         25.0000         
                  1                 
 74                1.310e-09        5.073e-09         25.0000         
                  1                 
 75                1.303e-09        5.062e-09         25.0000         
                  1                 
 76                1.173e-09        4.605e-09         25.0000         
                  1                 
 77                1.041e-09        4.558e-09         25.0000         
                  1                 
 78                9.429e-10        4.546e-09         25.0000         
                  1                 
 79                7.627e-10        5.581e-09         25.0000         
                  1                 
 80                1.245e-09        3.825e-09         25.0000         
                  1                 
 81                6.297e-10        6.204e-09         25.0000         
                  1                 
 82                7.979e-10          failed          25.0000         
                  1                 
 83                9.688e-10        3.283e-09         25.0000         
                  1                 
 84                7.279e-10        4.491e-09         25.0000         
                  1                 
 85                1.087e-09        4.881e-09         25.0000         
                  1                 
 86                9.040e-10        3.126e-09         25.0000         
                  1                 
 87                1.540e-09        3.057e-09         25.0000         
                  1                 
 88                1.151e-09        6.795e-09         25.0000         
                  1                 
 89                1.332e-09        4.793e-09         25.0000         
                  1                 
 90                7.298e-10        5.329e-09         25.0000         
                  1                 
 91                1.320e-09        4.188e-09         25.0000         
                  1                 
 92                7.113e-10        6.293e-09         25.0000         
                  1                 
 93                1.008e-09        3.025e-09         25.0000         
                  1                 
 94                7.043e-10        5.492e-09         25.0000         
                  1                 
 95                1.108e-09          failed          25.0000         
                  1                 
 96                9.321e-10        4.449e-09         25.0000         
                  1                 
 97                1.218e-09        5.838e-09         25.0000         
                  1                 
 98                1.227e-09        4.188e-09         25.0000         
                  1                 
 99                9.806e-10        3.833e-09         25.0000         
                  1                 
 100               1.165e-09        7.572e-09         25.0000         
                  1                 
