$DATA1 SOURCE='HSPICE' VERSION='F-2011.09 64-BIT'
.TITLE '* include model and subckts'
 index            write0           read0            delay_write0      
                  delay_read0      temper           alter#            
 1                 2.659e-05          0.3499         3.078e-09        
                     failed          25.0000        1                 
 2                 2.019e-05          0.3499         1.171e-09        
                     failed          25.0000        1                 
 3                 3.880e-05          0.3497         5.140e-09        
                     failed          25.0000        1                 
 4                 2.588e-05          0.3499         1.681e-09        
                     failed          25.0000        1                 
 5                   0.3499           0.3499         4.232e-08        
                     failed          25.0000        1                 
 6                 3.365e-05          0.3495         1.972e-09        
                     failed          25.0000        1                 
 7                 2.988e-05          0.3498         3.787e-09        
                     failed          25.0000        1                 
 8                 4.179e-05          0.3499         3.026e-09        
                     failed          25.0000        1                 
 9                 1.539e-05          0.3499         3.071e-09        
                     failed          25.0000        1                 
 10                6.389e-05          0.3499         2.899e-09        
                     failed          25.0000        1                 
 11                2.013e-05        2.826e-05        2.628e-09        
                   1.069e-08         25.0000        1                 
 12                1.958e-05          0.3494         2.834e-09        
                     failed          25.0000        1                 
 13                1.224e-05          0.3499         2.981e-09        
                     failed          25.0000        1                 
 14                1.937e-05        1.038e-04        2.205e-09        
                   1.847e-08         25.0000        1                 
 15                2.128e-05        3.038e-05        2.964e-09        
                   1.670e-08         25.0000        1                 
 16                2.295e-05        2.708e-05        2.740e-09        
                   1.579e-08         25.0000        1                 
 17                1.588e-05          0.3499         2.215e-09        
                     failed          25.0000        1                 
 18                1.676e-05          0.3498         1.778e-09        
                     failed          25.0000        1                 
 19                3.059e-05          0.3497         4.726e-09        
                     failed          25.0000        1                 
 20                1.932e-05          0.3498         2.869e-09        
                     failed          25.0000        1                 
 21                1.136e-05          0.3499         1.807e-09        
                     failed          25.0000        1                 
 22                  0.3499           0.3499           failed         
                     failed          25.0000        1                 
 23                3.767e-05          0.3498         2.703e-09        
                     failed          25.0000        1                 
 24                2.626e-05          0.3498         3.599e-09        
                     failed          25.0000        1                 
 25                1.104e-05          0.3498         2.299e-09        
                     failed          25.0000        1                 
 26                4.063e-05          0.3499         2.819e-09        
                     failed          25.0000        1                 
 27                2.524e-05          0.3498         2.727e-09        
                     failed          25.0000        1                 
 28                1.592e-05          0.3499         2.834e-09        
                     failed          25.0000        1                 
 29                2.250e-05          0.3496         4.162e-08        
                     failed          25.0000        1                 
 30                1.091e-04          0.3498         2.622e-09        
                     failed          25.0000        1                 
 31                8.192e-05          0.3497         2.498e-09        
                     failed          25.0000        1                 
 32                4.055e-05          0.3498         2.632e-09        
                     failed          25.0000        1                 
 33                2.262e-05          0.3499         2.430e-09        
                     failed          25.0000        1                 
 34                4.441e-05          0.3499         2.424e-09        
                     failed          25.0000        1                 
 35                4.061e-05          0.3492         2.516e-09        
                  -8.106e-08         25.0000        1                 
 36                4.504e-05        1.317e-04        2.506e-09        
                   1.820e-08         25.0000        1                 
 37                2.973e-05          0.3498         1.554e-09        
                     failed          25.0000        1                 
 38                1.943e-05          0.3394         3.134e-09        
                     failed          25.0000        1                 
 39                3.138e-05          0.3498         2.761e-09        
                     failed          25.0000        1                 
 40                2.675e-05          0.3499         3.570e-09        
                     failed          25.0000        1                 
 41                3.208e-05          0.3499         2.297e-09        
                     failed          25.0000        1                 
 42                1.068e-04          0.3498         2.556e-09        
                     failed          25.0000        1                 
 43                7.550e-05          0.3499         3.356e-09        
                     failed          25.0000        1                 
 44                1.569e-05          0.3499         1.947e-09        
                     failed          25.0000        1                 
 45                1.172e-05          0.3498         2.060e-09        
                     failed          25.0000        1                 
 46                4.312e-05          0.3388         2.882e-09        
                     failed          25.0000        1                 
 47                1.565e-05          0.3498         2.860e-09        
                     failed          25.0000        1                 
 48                7.971e-06          0.3280         2.683e-09        
                     failed          25.0000        1                 
 49                9.119e-05          0.3496         2.442e-09        
                     failed          25.0000        1                 
 50                  0.3499           0.3499           failed         
                     failed          25.0000        1                 
