$DATA1 SOURCE='HSPICE' VERSION='F-2011.09 64-BIT'
.TITLE '* include model and subckts'
 index            delay_write1     delay_read1      temper            
                  alter#            
 1                 1.469e-09        3.655e-09         25.0000         
                  1                 
 2                 1.080e-09        4.151e-09         25.0000         
                  1                 
 3                 1.161e-09        5.318e-09         25.0000         
                  1                 
 4                 7.825e-10        5.002e-09         25.0000         
                  1                 
 5                 8.977e-10        3.334e-09         25.0000         
                  1                 
 6                 9.638e-10        4.097e-09         25.0000         
                  1                 
 7                 1.196e-09        5.070e-09         25.0000         
                  1                 
 8                 9.141e-10        7.198e-09         25.0000         
                  1                 
 9                 9.778e-10        6.897e-09         25.0000         
                  1                 
 10                1.073e-09        4.453e-09         25.0000         
                  1                 
 11                1.011e-09        4.245e-09         25.0000         
                  1                 
 12                8.647e-10        3.148e-09         25.0000         
                  1                 
 13                1.010e-09        5.177e-09         25.0000         
                  1                 
 14                1.230e-09        5.217e-09         25.0000         
                  1                 
 15                7.288e-10        3.975e-09         25.0000         
                  1                 
 16                9.595e-10        4.482e-09         25.0000         
                  1                 
 17                1.204e-09        4.430e-09         25.0000         
                  1                 
 18                1.218e-09        4.737e-09         25.0000         
                  1                 
 19                1.186e-09          failed          25.0000         
                  1                 
 20                9.570e-10        3.713e-09         25.0000         
                  1                 
 21                1.652e-09        5.674e-09         25.0000         
                  1                 
 22                1.413e-09        3.906e-09         25.0000         
                  1                 
 23                1.087e-09        4.361e-09         25.0000         
                  1                 
 24                8.242e-10        3.308e-09         25.0000         
                  1                 
 25                7.607e-10        4.845e-09         25.0000         
                  1                 
 26                7.718e-10        4.867e-09         25.0000         
                  1                 
 27                8.020e-10        3.280e-09         25.0000         
                  1                 
 28                8.327e-10        3.939e-09         25.0000         
                  1                 
 29                1.269e-09        5.532e-09         25.0000         
                  1                 
 30                1.121e-09        4.050e-09         25.0000         
                  1                 
 31                9.997e-10        7.341e-09         25.0000         
                  1                 
 32                8.444e-10        3.259e-09         25.0000         
                  1                 
 33                1.194e-09        4.316e-09         25.0000         
                  1                 
 34                1.092e-09        3.692e-09         25.0000         
                  1                 
 35                8.323e-10        3.946e-09         25.0000         
                  1                 
 36                1.113e-09        4.408e-09         25.0000         
                  1                 
 37                8.753e-10        4.256e-09         25.0000         
                  1                 
 38                1.077e-09        3.659e-09         25.0000         
                  1                 
 39                1.383e-09        4.354e-09         25.0000         
                  1                 
 40                1.320e-09        4.072e-09         25.0000         
                  1                 
 41                1.081e-09        4.313e-09         25.0000         
                  1                 
 42                1.483e-09        3.568e-09         25.0000         
                  1                 
 43                8.715e-10        4.786e-09         25.0000         
                  1                 
 44                1.066e-09        5.844e-09         25.0000         
                  1                 
 45                8.188e-10        4.620e-09         25.0000         
                  1                 
 46                1.008e-09        6.146e-09         25.0000         
                  1                 
 47                8.428e-10        4.890e-09         25.0000         
                  1                 
 48                1.011e-09        4.149e-09         25.0000         
                  1                 
 49                1.104e-09        5.435e-09         25.0000         
                  1                 
 50                8.848e-10        4.513e-09         25.0000         
                  1                 
 51                1.007e-09        3.613e-09         25.0000         
                  1                 
 52                1.170e-09        4.113e-09         25.0000         
                  1                 
 53                9.182e-10        4.993e-09         25.0000         
                  1                 
 54                1.133e-09        7.086e-09         25.0000         
                  1                 
 55                7.436e-10        4.962e-09         25.0000         
                  1                 
 56                1.201e-09        8.522e-09         25.0000         
                  1                 
 57                1.083e-09        7.565e-09         25.0000         
                  1                 
 58                8.517e-10        5.069e-09         25.0000         
                  1                 
 59                9.027e-10        3.875e-09         25.0000         
                  1                 
 60                1.053e-09          failed          25.0000         
                  1                 
 61                1.172e-09        4.357e-09         25.0000         
                  1                 
 62                9.664e-10        4.808e-09         25.0000         
                  1                 
 63                1.094e-09        5.647e-09         25.0000         
                  1                 
 64                1.047e-09        4.239e-09         25.0000         
                  1                 
 65                9.977e-10        3.861e-09         25.0000         
                  1                 
 66                9.718e-10        4.145e-09         25.0000         
                  1                 
 67                1.092e-09        3.224e-09         25.0000         
                  1                 
 68                1.132e-09        5.080e-09         25.0000         
                  1                 
 69                1.302e-09        7.066e-09         25.0000         
                  1                 
 70                7.063e-10        6.036e-09         25.0000         
                  1                 
 71                9.315e-10        5.044e-09         25.0000         
                  1                 
 72                8.716e-10        4.731e-09         25.0000         
                  1                 
 73                9.566e-10        4.680e-09         25.0000         
                  1                 
 74                1.235e-09        5.078e-09         25.0000         
                  1                 
 75                1.187e-09        5.037e-09         25.0000         
                  1                 
 76                1.121e-09        4.615e-09         25.0000         
                  1                 
 77                1.023e-09        4.570e-09         25.0000         
                  1                 
 78                9.751e-10        4.429e-09         25.0000         
                  1                 
 79                7.925e-10        5.600e-09         25.0000         
                  1                 
 80                1.167e-09        3.830e-09         25.0000         
                  1                 
 81                6.513e-10        6.204e-09         25.0000         
                  1                 
