$DATA1 SOURCE='HSPICE' VERSION='F-2011.09 64-BIT'
.TITLE '* include model and subckts'
 index            delay_write0     delay_read0      temper            
                  alter#            
 1                 5.354e-10        9.798e-09         25.0000         
                  1                 
 2                 5.090e-10        6.219e-09         25.0000         
                  1                 
 3                 5.548e-10        4.659e-09         25.0000         
                  1                 
 4                 3.332e-10        7.276e-09         25.0000         
                  1                 
 5                 4.878e-10        3.072e-09         25.0000         
                  1                 
 6                 6.380e-10        1.211e-08         25.0000         
                  1                 
 7                 7.893e-10        5.146e-09         25.0000         
                  1                 
 8                 5.523e-10        4.762e-09         25.0000         
                  1                 
 9                 7.000e-10        9.454e-09         25.0000         
                  1                 
 10                4.795e-10        4.197e-09         25.0000         
                  1                 
 11                6.022e-10        4.656e-09         25.0000         
                  1                 
 12                4.993e-10        7.192e-09         25.0000         
                  1                 
 13                8.319e-10        6.559e-09         25.0000         
                  1                 
 14                6.589e-10        4.952e-09         25.0000         
                  1                 
 15                3.739e-10        4.705e-09         25.0000         
                  1                 
 16                5.596e-10        4.227e-09         25.0000         
                  1                 
 17                5.757e-10        5.987e-09         25.0000         
                  1                 
 18                5.748e-10        4.483e-09         25.0000         
                  1                 
 19                5.540e-10       -3.483e-08         25.0000         
                  1                 
 20                5.767e-10        5.080e-09         25.0000         
                  1                 
