$DATA1 SOURCE='HSPICE' VERSION='F-2011.09 64-BIT'
.TITLE '* include model and subckts'
 index            delay_write1     delay_read1      temper            
                  alter#            
 1                 1.404e-09        4.677e-09         25.0000         
                  1                 
 2                 1.052e-09        6.028e-09         25.0000         
                  1                 
 3                 1.124e-09        8.286e-09         25.0000         
                  1                 
 4                 7.586e-10        8.434e-09         25.0000         
                  1                 
 5                 8.695e-10        4.935e-09         25.0000         
                  1                 
 6                 9.411e-10        6.005e-09         25.0000         
                  1                 
 7                 1.162e-09        6.853e-09         25.0000         
                  1                 
 8                 8.891e-10        8.573e-09         25.0000         
                  1                 
 9                 9.448e-10        6.460e-09         25.0000         
                  1                 
 10                1.039e-09        5.529e-09         25.0000         
                  1                 
 11                9.803e-10        5.911e-09         25.0000         
                  1                 
 12                8.383e-10        4.628e-09         25.0000         
                  1                 
 13                9.782e-10        6.007e-09         25.0000         
                  1                 
 14                1.190e-09        6.660e-09         25.0000         
                  1                 
 15                7.077e-10        4.314e-09         25.0000         
                  1                 
 16                9.300e-10        5.228e-09         25.0000         
                  1                 
 17                1.165e-09        5.877e-09         25.0000         
                  1                 
 18                1.171e-09        5.951e-09         25.0000         
                  1                 
 19                1.145e-09          failed          25.0000         
                  1                 
 20                9.320e-10        5.172e-09         25.0000         
                  1                 
 21                1.586e-09        5.861e-09         25.0000         
                  1                 
 22                1.363e-09        5.428e-09         25.0000         
                  1                 
 23                1.056e-09        5.613e-09         25.0000         
                  1                 
 24                7.963e-10        4.303e-09         25.0000         
                  1                 
 25                7.403e-10        6.312e-09         25.0000         
                  1                 
 26                7.545e-10        6.052e-09         25.0000         
                  1                 
 27                7.732e-10        4.351e-09         25.0000         
                  1                 
 28                8.076e-10        4.768e-09         25.0000         
                  1                 
 29                1.232e-09        6.733e-09         25.0000         
                  1                 
 30                1.094e-09        6.500e-09         25.0000         
                  1                 
 31                9.721e-10        8.315e-09         25.0000         
                  1                 
 32                8.169e-10        5.079e-09         25.0000         
                  1                 
 33                1.157e-09        7.053e-09         25.0000         
                  1                 
 34                1.058e-09        4.385e-09         25.0000         
                  1                 
 35                8.107e-10        4.819e-09         25.0000         
                  1                 
 36                1.077e-09        6.795e-09         25.0000         
                  1                 
 37                8.497e-10        5.441e-09         25.0000         
                  1                 
 38                1.035e-09        5.744e-09         25.0000         
                  1                 
 39                1.345e-09        5.222e-09         25.0000         
                  1                 
 40                1.279e-09        5.971e-09         25.0000         
                  1                 
 41                1.044e-09        6.191e-09         25.0000         
                  1                 
 42                1.436e-09        4.850e-09         25.0000         
                  1                 
 43                8.412e-10        6.114e-09         25.0000         
                  1                 
 44                1.030e-09        6.539e-09         25.0000         
                  1                 
 45                7.948e-10        5.616e-09         25.0000         
                  1                 
 46                9.820e-10        7.057e-09         25.0000         
                  1                 
 47                8.162e-10        6.014e-09         25.0000         
                  1                 
 48                9.771e-10        5.705e-09         25.0000         
                  1                 
 49                1.066e-09        6.766e-09         25.0000         
                  1                 
 50                8.545e-10        6.417e-09         25.0000         
                  1                 
 51                9.766e-10        5.091e-09         25.0000         
                  1                 
 52                1.145e-09        5.237e-09         25.0000         
                  1                 
 53                8.954e-10        6.347e-09         25.0000         
                  1                 
 54                1.092e-09        6.959e-09         25.0000         
                  1                 
 55                7.233e-10        6.250e-09         25.0000         
                  1                 
 56                1.161e-09        7.282e-09         25.0000         
                  1                 
 57                1.040e-09        9.723e-09         25.0000         
                  1                 
 58                8.259e-10        6.688e-09         25.0000         
                  1                 
 59                8.754e-10        4.796e-09         25.0000         
                  1                 
 60                1.031e-09          failed          25.0000         
                  1                 
 61                1.128e-09        6.449e-09         25.0000         
                  1                 
 62                9.326e-10        5.964e-09         25.0000         
                  1                 
 63                1.061e-09        7.244e-09         25.0000         
                  1                 
 64                1.018e-09        5.208e-09         25.0000         
                  1                 
 65                9.672e-10        5.715e-09         25.0000         
                  1                 
 66                9.384e-10        5.951e-09         25.0000         
                  1                 
 67                1.060e-09        4.670e-09         25.0000         
                  1                 
 68                1.087e-09        5.442e-09         25.0000         
                  1                 
 69                1.267e-09        7.170e-09         25.0000         
                  1                 
 70                6.838e-10        8.802e-09         25.0000         
                  1                 
 71                9.070e-10        8.011e-09         25.0000         
                  1                 
 72                8.427e-10        5.404e-09         25.0000         
                  1                 
 73                9.290e-10        5.641e-09         25.0000         
                  1                 
 74                1.200e-09        6.722e-09         25.0000         
                  1                 
 75                1.145e-09        5.574e-09         25.0000         
                  1                 
 76                1.085e-09        6.777e-09         25.0000         
                  1                 
 77                9.881e-10        6.567e-09         25.0000         
                  1                 
 78                9.505e-10        5.651e-09         25.0000         
                  1                 
 79                7.695e-10        6.048e-09         25.0000         
                  1                 
 80                1.132e-09        5.754e-09         25.0000         
                  1                 
 81                6.284e-10        6.980e-09         25.0000         
                  1                 
 82                7.852e-10          failed          25.0000         
                  1                 
 83                9.588e-10        4.560e-09         25.0000         
                  1                 
 84                7.503e-10        5.932e-09         25.0000         
                  1                 
 85                1.007e-09        7.248e-09         25.0000         
                  1                 
 86                8.552e-10        4.129e-09         25.0000         
                  1                 
 87                1.417e-09        4.590e-09         25.0000         
                  1                 
 88                1.049e-09        7.805e-09         25.0000         
                  1                 
 89                1.178e-09        5.837e-09         25.0000         
                  1                 
 90                7.742e-10        6.675e-09         25.0000         
                  1                 
 91                1.185e-09        5.972e-09         25.0000         
                  1                 
 92                7.371e-10        6.753e-09         25.0000         
                  1                 
 93                1.004e-09        4.663e-09         25.0000         
                  1                 
 94                6.947e-10        6.809e-09         25.0000         
                  1                 
 95                1.044e-09          failed          25.0000         
                  1                 
 96                8.818e-10        5.965e-09         25.0000         
                  1                 
 97                1.127e-09        7.712e-09         25.0000         
                  1                 
 98                1.131e-09        5.991e-09         25.0000         
                  1                 
 99                9.495e-10        5.379e-09         25.0000         
                  1                 
 100               1.072e-09        8.296e-09         25.0000         
                  1                 
