$DATA1 SOURCE='HSPICE' VERSION='F-2011.09 64-BIT'
.TITLE '* include model and subckts'
 index            delay_write1     delay_read1      temper            
                  alter#            
 1                 1.460e-09        4.699e-09         25.0000         
                  1                 
 2                 1.078e-09        5.682e-09         25.0000         
                  1                 
 3                 1.160e-09        7.753e-09         25.0000         
                  1                 
 4                 7.814e-10        7.701e-09         25.0000         
                  1                 
 5                 8.974e-10        4.795e-09         25.0000         
                  1                 
 6                 9.670e-10        5.739e-09         25.0000         
                  1                 
 7                 1.190e-09        6.538e-09         25.0000         
                  1                 
 8                 9.120e-10        7.973e-09         25.0000         
                  1                 
 9                 9.724e-10        6.100e-09         25.0000         
                  1                 
 10                1.070e-09        5.424e-09         25.0000         
                  1                 
 11                1.006e-09        5.727e-09         25.0000         
                  1                 
 12                8.626e-10        4.538e-09         25.0000         
                  1                 
 13                1.009e-09        5.797e-09         25.0000         
                  1                 
 14                1.226e-09        6.398e-09         25.0000         
                  1                 
 15                7.249e-10        4.167e-09         25.0000         
                  1                 
 16                9.528e-10        5.207e-09         25.0000         
                  1                 
 17                1.200e-09        5.846e-09         25.0000         
                  1                 
 18                1.213e-09        5.747e-09         25.0000         
                  1                 
 19                1.179e-09          failed          25.0000         
                  1                 
 20                9.559e-10        4.995e-09         25.0000         
                  1                 
 21                1.641e-09        5.693e-09         25.0000         
                  1                 
 22                1.409e-09        5.314e-09         25.0000         
                  1                 
 23                1.083e-09        5.463e-09         25.0000         
                  1                 
 24                8.254e-10        4.236e-09         25.0000         
                  1                 
 25                7.577e-10        6.090e-09         25.0000         
                  1                 
 26                7.774e-10        5.944e-09         25.0000         
                  1                 
 27                7.995e-10        4.300e-09         25.0000         
                  1                 
 28                8.306e-10        4.801e-09         25.0000         
                  1                 
 29                1.261e-09        6.467e-09         25.0000         
                  1                 
 30                1.127e-09        6.443e-09         25.0000         
                  1                 
 31                9.976e-10        7.788e-09         25.0000         
                  1                 
 32                8.364e-10        4.908e-09         25.0000         
                  1                 
 33                1.196e-09        6.529e-09         25.0000         
                  1                 
 34                1.091e-09        4.309e-09         25.0000         
                  1                 
 35                8.332e-10        4.803e-09         25.0000         
                  1                 
 36                1.108e-09        6.532e-09         25.0000         
                  1                 
 37                8.733e-10        5.266e-09         25.0000         
                  1                 
 38                1.071e-09        5.548e-09         25.0000         
                  1                 
 39                1.375e-09        5.134e-09         25.0000         
                  1                 
 40                1.318e-09        5.644e-09         25.0000         
                  1                 
 41                1.075e-09        5.972e-09         25.0000         
                  1                 
 42                1.479e-09        4.708e-09         25.0000         
                  1                 
 43                8.668e-10        6.094e-09         25.0000         
                  1                 
 44                1.063e-09        6.195e-09         25.0000         
                  1                 
 45                8.164e-10        5.558e-09         25.0000         
                  1                 
 46                1.006e-09        6.907e-09         25.0000         
                  1                 
 47                8.407e-10        5.891e-09         25.0000         
                  1                 
 48                1.005e-09        5.631e-09         25.0000         
                  1                 
 49                1.092e-09        6.527e-09         25.0000         
                  1                 
 50                8.797e-10        5.987e-09         25.0000         
                  1                 
 51                1.002e-09        4.966e-09         25.0000         
                  1                 
 52                1.171e-09        5.022e-09         25.0000         
                  1                 
 53                9.166e-10        6.091e-09         25.0000         
                  1                 
 54                1.131e-09        6.751e-09         25.0000         
                  1                 
 55                7.419e-10        5.995e-09         25.0000         
                  1                 
 56                1.198e-09        6.822e-09         25.0000         
                  1                 
 57                1.073e-09        8.847e-09         25.0000         
                  1                 
 58                8.482e-10        6.462e-09         25.0000         
                  1                 
 59                8.972e-10        4.699e-09         25.0000         
                  1                 
 60                1.055e-09          failed          25.0000         
                  1                 
 61                1.168e-09        6.228e-09         25.0000         
                  1                 
 62                9.621e-10        5.854e-09         25.0000         
                  1                 
 63                1.091e-09        6.824e-09         25.0000         
                  1                 
 64                1.043e-09        5.200e-09         25.0000         
                  1                 
 65                9.952e-10        5.509e-09         25.0000         
                  1                 
 66                9.682e-10        5.846e-09         25.0000         
                  1                 
 67                1.083e-09        4.637e-09         25.0000         
                  1                 
 68                1.124e-09        5.386e-09         25.0000         
                  1                 
 69                1.304e-09        6.780e-09         25.0000         
                  1                 
 70                7.084e-10        7.888e-09         25.0000         
                  1                 
 71                9.295e-10        7.553e-09         25.0000         
                  1                 
 72                8.683e-10        5.283e-09         25.0000         
                  1                 
 73                9.533e-10        5.558e-09         25.0000         
                  1                 
 74                1.236e-09        6.397e-09         25.0000         
                  1                 
 75                1.185e-09        5.355e-09         25.0000         
                  1                 
 76                1.119e-09        6.499e-09         25.0000         
                  1                 
 77                1.017e-09        6.339e-09         25.0000         
                  1                 
 78                9.717e-10        5.609e-09         25.0000         
                  1                 
 79                7.906e-10        5.804e-09         25.0000         
                  1                 
 80                1.165e-09        5.603e-09         25.0000         
                  1                 
 81                6.495e-10        6.692e-09         25.0000         
                  1                 
 82                8.059e-10          failed          25.0000         
                  1                 
 83                9.856e-10        4.561e-09         25.0000         
                  1                 
 84                7.691e-10        5.784e-09         25.0000         
                  1                 
 85                1.046e-09        6.682e-09         25.0000         
                  1                 
 86                8.870e-10        4.161e-09         25.0000         
                  1                 
 87                1.459e-09        4.537e-09         25.0000         
                  1                 
 88                1.082e-09        7.393e-09         25.0000         
                  1                 
 89                1.217e-09        5.717e-09         25.0000         
                  1                 
 90                7.921e-10        6.374e-09         25.0000         
                  1                 
 91                1.212e-09        5.768e-09         25.0000         
                  1                 
 92                7.554e-10        6.463e-09         25.0000         
                  1                 
 93                1.035e-09        4.518e-09         25.0000         
                  1                 
 94                7.135e-10        6.546e-09         25.0000         
                  1                 
 95                1.077e-09          failed          25.0000         
                  1                 
 96                9.103e-10        5.833e-09         25.0000         
                  1                 
 97                1.157e-09        7.176e-09         25.0000         
                  1                 
 98                1.168e-09        5.861e-09         25.0000         
                  1                 
 99                9.735e-10        5.267e-09         25.0000         
                  1                 
 100               1.113e-09        7.859e-09         25.0000         
                  1                 
