$DATA1 SOURCE='HSPICE' VERSION='F-2011.09 64-BIT'
.TITLE '* include model and subckts'
 index            delay_write1     delay_read1      temper            
                  alter#            
 1                 1.469e-09        3.655e-09         25.0000         
                  1                 
 2                 1.080e-09        4.151e-09         25.0000         
                  1                 
 3                 1.161e-09        5.318e-09         25.0000         
                  1                 
 4                 7.825e-10        5.002e-09         25.0000         
                  1                 
 5                 8.977e-10        3.334e-09         25.0000         
                  1                 
 6                 9.638e-10        4.097e-09         25.0000         
                  1                 
 7                 1.196e-09        5.070e-09         25.0000         
                  1                 
 8                 9.141e-10        7.198e-09         25.0000         
                  1                 
 9                 9.778e-10        6.897e-09         25.0000         
                  1                 
 10                1.073e-09        4.453e-09         25.0000         
                  1                 
 11                1.011e-09        4.245e-09         25.0000         
                  1                 
 12                8.647e-10        3.148e-09         25.0000         
                  1                 
 13                1.010e-09        5.177e-09         25.0000         
                  1                 
 14                1.230e-09        5.217e-09         25.0000         
                  1                 
 15                7.288e-10        3.975e-09         25.0000         
                  1                 
 16                9.595e-10        4.482e-09         25.0000         
                  1                 
 17                1.204e-09        4.430e-09         25.0000         
                  1                 
 18                1.218e-09        4.737e-09         25.0000         
                  1                 
 19                1.186e-09          failed          25.0000         
                  1                 
 20                9.570e-10        3.713e-09         25.0000         
                  1                 
