$DATA1 SOURCE='HSPICE' VERSION='F-2011.09 64-BIT'
.TITLE '* include model and subckts'
 index            delay_write1     delay_read1      temper            
                  alter#            
 1                 1.324e-09        4.670e-09         25.0000         
                  1                 
 2                 9.971e-10        7.208e-09         25.0000         
                  1                 
 3                 1.071e-09        1.081e-08         25.0000         
                  1                 
 4                 7.261e-10        1.207e-08         25.0000         
                  1                 
 5                 8.280e-10        5.242e-09         25.0000         
                  1                 
 6                 8.949e-10        6.775e-09         25.0000         
                  1                 
 7                 1.120e-09        7.886e-09         25.0000         
                  1                 
 8                 8.497e-10        1.098e-08         25.0000         
                  1                 
 9                 9.093e-10        8.005e-09         25.0000         
                  1                 
 10                9.852e-10        5.739e-09         25.0000         
                  1                 
 11                9.448e-10        6.641e-09         25.0000         
                  1                 
 12                8.015e-10        4.912e-09         25.0000         
                  1                 
 13                9.344e-10        6.607e-09         25.0000         
                  1                 
 14                1.135e-09        7.484e-09         25.0000         
                  1                 
 15                6.792e-10        4.650e-09         25.0000         
                  1                 
 16                8.905e-10        5.316e-09         25.0000         
                  1                 
 17                1.112e-09        6.288e-09         25.0000         
                  1                 
 18                1.102e-09        6.556e-09         25.0000         
                  1                 
 19                1.097e-09          failed          25.0000         
                  1                 
 20                9.000e-10        5.638e-09         25.0000         
                  1                 
