$DATA1 SOURCE='HSPICE' VERSION='F-2011.09 64-BIT'
.TITLE '* include model and subckts'
 index            write0           read0            delay_write0      
                  delay_read0      temper           alter#            
 1                 5.686e-05          0.3499         3.176e-09        
                     failed          25.0000        1                 
 2                 3.246e-05          0.3498         6.227e-09        
                     failed          25.0000        1                 
 3                   0.3499           0.3497           failed         
                     failed          25.0000        1                 
 4                 3.063e-05          0.3495         3.165e-09        
                     failed          25.0000        1                 
 5                 1.618e-05          0.3498         3.322e-09        
                     failed          25.0000        1                 
 6                   0.3497           0.3499           failed         
                     failed          25.0000        1                 
 7                 1.494e-05          0.3499         2.278e-09        
                     failed          25.0000        1                 
 8                 2.263e-05          0.3499         1.959e-09        
                     failed          25.0000        1                 
 9                 2.755e-05        8.375e-03        2.959e-09        
                   2.161e-08         25.0000        1                 
 10                1.996e-05          0.3497         3.385e-09        
                     failed          25.0000        1                 
 11                4.562e-05          0.3304         2.453e-09        
                     failed          25.0000        1                 
 12                2.317e-05          0.3498         4.573e-09        
                     failed          25.0000        1                 
 13                2.324e-05          0.3490         2.700e-09        
                     failed          25.0000        1                 
 14                1.303e-05          0.3499         2.537e-09        
                     failed          25.0000        1                 
 15                3.070e-05          0.3498         2.346e-09        
                     failed          25.0000        1                 
 16                1.444e-04          0.3497         3.572e-09        
                     failed          25.0000        1                 
 17                3.432e-05          0.3499         3.305e-09        
                     failed          25.0000        1                 
 18                4.949e-05          0.3499         3.109e-09        
                     failed          25.0000        1                 
 19                1.560e-05          0.3498         2.775e-09        
                     failed          25.0000        1                 
 20                2.599e-05          0.3498         3.814e-09        
                     failed          25.0000        1                 
 21                2.673e-05          0.3492         3.093e-09        
                     failed          25.0000        1                 
 22                3.105e-05          0.3499         4.187e-09        
                     failed          25.0000        1                 
 23                3.363e-05          0.3497         2.705e-09        
                     failed          25.0000        1                 
 24                6.836e-05          0.3499         2.809e-09        
                     failed          25.0000        1                 
 25                2.602e-05          0.3498         4.592e-09        
                     failed          25.0000        1                 
 26                3.461e-05          0.3498         3.442e-09        
                     failed          25.0000        1                 
 27                2.593e-05          0.3499         4.193e-09        
                     failed          25.0000        1                 
 28                2.060e-05          0.3480         2.771e-09        
                     failed          25.0000        1                 
 29                2.093e-05          0.3499         3.750e-09        
                     failed          25.0000        1                 
 30                1.448e-05          0.3499         2.119e-09        
                     failed          25.0000        1                 
 31                2.218e-05          0.3497         3.901e-09        
                     failed          25.0000        1                 
 32                2.844e-05          0.3499         3.053e-09        
                     failed          25.0000        1                 
 33                  0.3498           0.3498           failed         
                     failed          25.0000        1                 
 34                7.277e-06          0.3499         3.233e-09        
                     failed          25.0000        1                 
 35                2.320e-05          0.3496         2.902e-09        
                     failed          25.0000        1                 
 36                3.447e-05          0.3496         3.650e-09        
                     failed          25.0000        1                 
 37                6.223e-05          0.3497         3.192e-09        
                     failed          25.0000        1                 
 38                3.609e-05          0.3499         2.819e-09        
                     failed          25.0000        1                 
 39                8.739e-06          0.3495         2.210e-09        
                     failed          25.0000        1                 
 40                6.918e-05          0.3496         2.909e-09        
                     failed          25.0000        1                 
 41                5.135e-05          0.3497         3.986e-09        
                     failed          25.0000        1                 
 42                2.315e-05          0.3498         2.184e-09        
                     failed          25.0000        1                 
 43                4.784e-05          0.3499         3.014e-09        
                     failed          25.0000        1                 
 44                2.392e-05          0.3482         2.382e-09        
                     failed          25.0000        1                 
 45                2.326e-05          0.3497         3.435e-09        
                     failed          25.0000        1                 
 46                3.459e-05          0.3498         2.614e-09        
                     failed          25.0000        1                 
 47                3.452e-05          0.3498         1.759e-09        
                     failed          25.0000        1                 
 48                1.982e-05          0.3498         3.224e-09        
                     failed          25.0000        1                 
 49                4.001e-05          0.3498         1.980e-09        
                     failed          25.0000        1                 
 50                1.613e-05          0.3475         2.132e-09        
                     failed          25.0000        1                 
