$DATA1 SOURCE='HSPICE' VERSION='F-2011.09 64-BIT'
.TITLE '* include model and subckts'
 index            delay_write0     delay_read0      temper            
                  alter#            
 1                 5.377e-10        7.689e-09         25.0000         
                  1                 
 2                 5.127e-10        5.654e-09         25.0000         
                  1                 
 3                 5.603e-10        4.398e-09         25.0000         
                  1                 
 4                 3.348e-10        6.154e-09         25.0000         
                  1                 
 5                 4.916e-10        2.950e-09         25.0000         
                  1                 
 6                 6.448e-10        1.003e-08         25.0000         
                  1                 
 7                 7.966e-10        4.680e-09         25.0000         
                  1                 
 8                 5.556e-10        4.597e-09         25.0000         
                  1                 
 9                 7.074e-10        8.420e-09         25.0000         
                  1                 
 10                4.847e-10        4.024e-09         25.0000         
                  1                 
 11                6.071e-10        4.499e-09         25.0000         
                  1                 
 12                5.010e-10        6.761e-09         25.0000         
                  1                 
 13                8.498e-10        5.734e-09         25.0000         
                  1                 
 14                6.623e-10        4.993e-09         25.0000         
                  1                 
 15                3.758e-10        4.584e-09         25.0000         
                  1                 
 16                5.624e-10        3.907e-09         25.0000         
                  1                 
 17                5.787e-10        5.121e-09         25.0000         
                  1                 
 18                5.803e-10        4.127e-09         25.0000         
                  1                 
 19                5.581e-10       -3.518e-08         25.0000         
                  1                 
 20                5.820e-10        4.702e-09         25.0000         
                  1                 
