$DATA1 SOURCE='HSPICE' VERSION='F-2011.09 64-BIT'
.TITLE '* include model and subckts'
 index            delay_write0     delay_read0      temper            
                  alter#            
 1                 5.377e-10        7.689e-09         25.0000         
                  1                 
 2                 5.127e-10        5.654e-09         25.0000         
                  1                 
 3                 5.603e-10        4.398e-09         25.0000         
                  1                 
 4                 3.348e-10        6.154e-09         25.0000         
                  1                 
 5                 4.916e-10        2.950e-09         25.0000         
                  1                 
 6                 6.448e-10        1.003e-08         25.0000         
                  1                 
 7                 7.966e-10        4.680e-09         25.0000         
                  1                 
 8                 5.556e-10        4.597e-09         25.0000         
                  1                 
 9                 7.074e-10        8.420e-09         25.0000         
                  1                 
 10                4.847e-10        4.024e-09         25.0000         
                  1                 
 11                6.071e-10        4.499e-09         25.0000         
                  1                 
 12                5.010e-10        6.761e-09         25.0000         
                  1                 
 13                8.498e-10        5.734e-09         25.0000         
                  1                 
 14                6.623e-10        4.993e-09         25.0000         
                  1                 
 15                3.758e-10        4.584e-09         25.0000         
                  1                 
 16                5.624e-10        3.907e-09         25.0000         
                  1                 
 17                5.787e-10        5.121e-09         25.0000         
                  1                 
 18                5.803e-10        4.127e-09         25.0000         
                  1                 
 19                5.581e-10       -3.518e-08         25.0000         
                  1                 
 20                5.820e-10        4.702e-09         25.0000         
                  1                 
 21                7.895e-10        5.123e-09         25.0000         
                  1                 
 22                6.239e-10        3.751e-09         25.0000         
                  1                 
 23                6.956e-10        4.950e-09         25.0000         
                  1                 
 24                5.461e-10        5.396e-09         25.0000         
                  1                 
 25                5.612e-10        6.039e-09         25.0000         
                  1                 
 26                4.166e-10        4.907e-09         25.0000         
                  1                 
 27                3.528e-10        4.710e-09         25.0000         
                  1                 
 28                5.282e-10        3.609e-09         25.0000         
                  1                 
 29                9.111e-10        5.006e-09         25.0000         
                  1                 
 30                6.399e-10        2.788e-09         25.0000         
                  1                 
 31                5.760e-10        3.914e-09         25.0000         
                  1                 
 32                5.205e-10        4.066e-09         25.0000         
                  1                 
 33                6.610e-10        3.431e-09         25.0000         
                  1                 
 34                5.090e-10        4.635e-09         25.0000         
                  1                 
 35                4.196e-10        6.477e-09         25.0000         
                  1                 
 36                5.072e-10        3.500e-09         25.0000         
                  1                 
 37                4.470e-10        3.619e-09         25.0000         
                  1                 
 38                6.617e-10        4.120e-09         25.0000         
                  1                 
 39                7.032e-10        4.555e-09         25.0000         
                  1                 
 40                7.295e-10        4.686e-09         25.0000         
                  1                 
 41                7.846e-10        3.172e-09         25.0000         
                  1                 
 42                7.197e-10        5.314e-09         25.0000         
                  1                 
 43                5.100e-10        2.640e-09         25.0000         
                  1                 
 44                4.572e-10        5.922e-09         25.0000         
                  1                 
 45                4.586e-10        3.606e-09         25.0000         
                  1                 
 46                6.237e-10        4.361e-09         25.0000         
                  1                 
 47                4.047e-10        5.635e-09         25.0000         
                  1                 
 48                6.563e-10        5.864e-09         25.0000         
                  1                 
 49                5.287e-10        6.207e-09         25.0000         
                  1                 
 50                8.438e-10        6.563e-09         25.0000         
                  1                 
 51                4.726e-10       -4.074e-08         25.0000         
                  1                 
 52                6.505e-10        4.153e-09         25.0000         
                  1                 
 53                5.941e-10        3.296e-09         25.0000         
                  1                 
 54                4.608e-10        5.759e-09         25.0000         
                  1                 
 55                3.739e-10        4.623e-09         25.0000         
                  1                 
 56                5.699e-10        4.410e-09         25.0000         
                  1                 
 57                5.095e-10        5.312e-09         25.0000         
                  1                 
 58                5.332e-10        2.797e-09         25.0000         
                  1                 
 59                7.665e-10        5.339e-09         25.0000         
                  1                 
 60                5.161e-10       -3.621e-08         25.0000         
                  1                 
 61                4.374e-10        5.091e-09         25.0000         
                  1                 
 62                4.784e-10        3.520e-09         25.0000         
                  1                 
 63                7.466e-10        4.329e-09         25.0000         
                  1                 
 64                1.014e-09        3.883e-09         25.0000         
                  1                 
 65                6.505e-10        4.514e-09         25.0000         
                  1                 
 66                4.303e-10        3.219e-09         25.0000         
                  1                 
 67                6.146e-10        3.239e-09         25.0000         
                  1                 
 68                5.709e-10        7.539e-09         25.0000         
                  1                 
 69                6.706e-10        5.173e-09         25.0000         
                  1                 
 70                4.098e-10        6.052e-09         25.0000         
                  1                 
 71                7.693e-10        4.614e-09         25.0000         
                  1                 
 72                5.180e-10        4.639e-09         25.0000         
                  1                 
 73                5.452e-10        3.473e-09         25.0000         
                  1                 
 74                6.654e-10        4.586e-09         25.0000         
                  1                 
 75                4.837e-10        6.423e-09         25.0000         
                  1                 
 76                5.773e-10        4.034e-09         25.0000         
                  1                 
 77                5.174e-10        3.914e-09         25.0000         
                  1                 
 78                4.830e-10        3.631e-09         25.0000         
                  1                 
 79                4.295e-10        3.899e-09         25.0000         
                  1                 
 80                5.445e-10        3.081e-09         25.0000         
                  1                 
 81                6.059e-10        3.189e-09         25.0000         
                  1                 
 82                5.672e-10       -3.713e-08         25.0000         
                  1                 
 83                4.751e-10        4.314e-09         25.0000         
                  1                 
