$DATA1 SOURCE='HSPICE' VERSION='F-2011.09 64-BIT'
.TITLE '* include model and subckts'
 index            delay_write1     delay_read1      temper            
                  alter#            
 1                 1.464e-09        4.272e-09         25.0000         
                  1                 
 2                 1.080e-09        5.050e-09         25.0000         
                  1                 
 3                 1.160e-09        6.835e-09         25.0000         
                  1                 
 4                 7.816e-10        6.732e-09         25.0000         
                  1                 
 5                 8.957e-10        4.253e-09         25.0000         
                  1                 
 6                 9.687e-10        5.101e-09         25.0000         
                  1                 
 7                 1.194e-09        5.883e-09         25.0000         
                  1                 
 8                 9.131e-10        7.386e-09         25.0000         
                  1                 
 9                 9.740e-10        5.966e-09         25.0000         
                  1                 
 10                1.072e-09        5.033e-09         25.0000         
                  1                 
 11                1.007e-09        5.141e-09         25.0000         
                  1                 
 12                8.631e-10        4.028e-09         25.0000         
                  1                 
 13                1.007e-09        5.418e-09         25.0000         
                  1                 
 14                1.229e-09        5.854e-09         25.0000         
                  1                 
 15                7.284e-10        4.002e-09         25.0000         
                  1                 
 16                9.569e-10        4.830e-09         25.0000         
                  1                 
 17                1.202e-09        5.232e-09         25.0000         
                  1                 
 18                1.215e-09        5.241e-09         25.0000         
                  1                 
 19                1.185e-09          failed          25.0000         
                  1                 
 20                9.545e-10        4.473e-09         25.0000         
                  1                 
 21                1.648e-09        5.448e-09         25.0000         
                  1                 
 22                1.405e-09        4.729e-09         25.0000         
                  1                 
 23                1.080e-09        4.987e-09         25.0000         
                  1                 
 24                8.210e-10        3.877e-09         25.0000         
                  1                 
 25                7.585e-10        5.608e-09         25.0000         
                  1                 
 26                7.759e-10        5.478e-09         25.0000         
                  1                 
 27                7.967e-10        3.905e-09         25.0000         
                  1                 
 28                8.314e-10        4.387e-09         25.0000         
                  1                 
 29                1.267e-09        5.989e-09         25.0000         
                  1                 
 30                1.119e-09        5.516e-09         25.0000         
                  1                 
 31                9.985e-10        7.283e-09         25.0000         
                  1                 
 32                8.446e-10        4.330e-09         25.0000         
                  1                 
 33                1.195e-09        5.671e-09         25.0000         
                  1                 
 34                1.088e-09        4.005e-09         25.0000         
                  1                 
 35                8.344e-10        4.439e-09         25.0000         
                  1                 
 36                1.110e-09        5.744e-09         25.0000         
                  1                 
 37                8.742e-10        4.800e-09         25.0000         
                  1                 
 38                1.075e-09        4.874e-09         25.0000         
                  1                 
 39                1.378e-09        4.768e-09         25.0000         
                  1                 
 40                1.313e-09        5.041e-09         25.0000         
                  1                 
 41                1.079e-09        5.265e-09         25.0000         
                  1                 
 42                1.480e-09        4.264e-09         25.0000         
                  1                 
 43                8.723e-10        5.522e-09         25.0000         
                  1                 
 44                1.065e-09        5.857e-09         25.0000         
                  1                 
 45                8.187e-10        5.114e-09         25.0000         
                  1                 
 46                1.008e-09        6.512e-09         25.0000         
                  1                 
 47                8.403e-10        5.437e-09         25.0000         
                  1                 
 48                1.008e-09        5.131e-09         25.0000         
                  1                 
 49                1.105e-09        5.970e-09         25.0000         
                  1                 
 50                8.806e-10        5.388e-09         25.0000         
                  1                 
 51                1.003e-09        4.408e-09         25.0000         
                  1                 
 52                1.175e-09        4.642e-09         25.0000         
                  1                 
 53                9.170e-10        5.582e-09         25.0000         
                  1                 
 54                1.129e-09        6.514e-09         25.0000         
                  1                 
 55                7.432e-10        5.515e-09         25.0000         
                  1                 
 56                1.203e-09        6.913e-09         25.0000         
                  1                 
 57                1.070e-09        8.078e-09         25.0000         
                  1                 
 58                8.501e-10        5.825e-09         25.0000         
                  1                 
 59                9.006e-10        4.339e-09         25.0000         
                  1                 
 60                1.055e-09          failed          25.0000         
                  1                 
 61                1.169e-09        5.533e-09         25.0000         
                  1                 
 62                9.608e-10        5.385e-09         25.0000         
                  1                 
 63                1.095e-09        6.196e-09         25.0000         
                  1                 
 64                1.045e-09        4.741e-09         25.0000         
                  1                 
 65                1.001e-09        4.874e-09         25.0000         
                  1                 
 66                9.651e-10        5.149e-09         25.0000         
                  1                 
 67                1.089e-09        4.138e-09         25.0000         
                  1                 
 68                1.129e-09        5.121e-09         25.0000         
                  1                 
 69                1.306e-09        6.513e-09         25.0000         
                  1                 
 70                7.086e-10        7.066e-09         25.0000         
                  1                 
 71                9.304e-10        6.620e-09         25.0000         
                  1                 
 72                8.698e-10        4.961e-09         25.0000         
                  1                 
 73                9.547e-10        5.201e-09         25.0000         
                  1                 
 74                1.235e-09        5.810e-09         25.0000         
                  1                 
 75                1.188e-09        5.093e-09         25.0000         
                  1                 
 76                1.120e-09        5.684e-09         25.0000         
                  1                 
 77                1.019e-09        5.673e-09         25.0000         
                  1                 
 78                9.732e-10        5.126e-09         25.0000         
                  1                 
 79                7.914e-10        5.499e-09         25.0000         
                  1                 
 80                1.167e-09        4.907e-09         25.0000         
                  1                 
 81                6.497e-10        6.268e-09         25.0000         
                  1                 
 82                8.067e-10          failed          25.0000         
                  1                 
 83                9.860e-10        4.070e-09         25.0000         
                  1                 
 84                7.682e-10        5.265e-09         25.0000         
                  1                 
 85                1.045e-09        6.011e-09         25.0000         
                  1                 
 86                8.878e-10        3.772e-09         25.0000         
                  1                 
 87                1.462e-09        4.036e-09         25.0000         
                  1                 
 88                1.083e-09        6.913e-09         25.0000         
                  1                 
 89                1.220e-09        5.200e-09         25.0000         
                  1                 
 90                7.915e-10        5.811e-09         25.0000         
                  1                 
 91                1.217e-09        5.123e-09         25.0000         
                  1                 
 92                7.561e-10        6.142e-09         25.0000         
                  1                 
 93                1.035e-09        4.041e-09         25.0000         
                  1                 
 94                7.139e-10        6.003e-09         25.0000         
                  1                 
 95                1.073e-09          failed          25.0000         
                  1                 
 96                9.087e-10        5.301e-09         25.0000         
                  1                 
 97                1.161e-09        6.481e-09         25.0000         
                  1                 
 98                1.163e-09        5.244e-09         25.0000         
                  1                 
 99                9.761e-10        4.737e-09         25.0000         
                  1                 
 100               1.116e-09        7.388e-09         25.0000         
                  1                 
