$DATA1 SOURCE='HSPICE' VERSION='F-2011.09 64-BIT'
.TITLE '* include model and subckts'
 index            delay_write1     delay_read1      temper            
                  alter#            
 1                 1.405e-09        5.230e-09         25.0000         
                  1                 
 2                 1.046e-09        6.862e-09         25.0000         
                  1                 
 3                 1.124e-09        9.511e-09         25.0000         
                  1                 
 4                 7.590e-10        9.751e-09         25.0000         
                  1                 
 5                 8.691e-10        5.622e-09         25.0000         
                  1                 
 6                 9.415e-10        6.798e-09         25.0000         
                  1                 
 7                 1.161e-09        7.637e-09         25.0000         
                  1                 
 8                 8.901e-10        9.455e-09         25.0000         
                  1                 
 9                 9.477e-10        6.726e-09         25.0000         
                  1                 
 10                1.032e-09        6.073e-09         25.0000         
                  1                 
 11                9.789e-10        6.693e-09         25.0000         
                  1                 
 12                8.377e-10        5.294e-09         25.0000         
                  1                 
 13                9.775e-10        6.541e-09         25.0000         
                  1                 
 14                1.189e-09        7.378e-09         25.0000         
                  1                 
 15                7.059e-10        4.588e-09         25.0000         
                  1                 
 16                9.290e-10        5.758e-09         25.0000         
                  1                 
 17                1.163e-09        6.651e-09         25.0000         
                  1                 
 18                1.167e-09        6.614e-09         25.0000         
                  1                 
 19                1.144e-09          failed          25.0000         
                  1                 
 20                9.315e-10        5.812e-09         25.0000         
                  1                 
 21                1.587e-09        6.239e-09         25.0000         
                  1                 
 22                1.362e-09        6.115e-09         25.0000         
                  1                 
 23                1.055e-09        6.252e-09         25.0000         
                  1                 
 24                7.980e-10        4.743e-09         25.0000         
                  1                 
 25                7.398e-10        6.950e-09         25.0000         
                  1                 
 26                7.528e-10        6.691e-09         25.0000         
                  1                 
 27                7.765e-10        4.870e-09         25.0000         
                  1                 
 28                8.054e-10        5.297e-09         25.0000         
                  1                 
 29                1.231e-09        7.458e-09         25.0000         
                  1                 
 30                1.097e-09        7.643e-09         25.0000         
                  1                 
 31                9.745e-10        9.080e-09         25.0000         
                  1                 
 32                8.214e-10        5.824e-09         25.0000         
                  1                 
 33                1.153e-09        8.125e-09         25.0000         
                  1                 
 34                1.057e-09        4.757e-09         25.0000         
                  1                 
 35                8.062e-10        5.296e-09         25.0000         
                  1                 
 36                1.074e-09        7.797e-09         25.0000         
                  1                 
 37                8.491e-10        6.070e-09         25.0000         
                  1                 
 38                1.034e-09        6.646e-09         25.0000         
                  1                 
 39                1.343e-09        5.737e-09         25.0000         
                  1                 
 40                1.276e-09        6.764e-09         25.0000         
                  1                 
 41                1.048e-09        7.042e-09         25.0000         
                  1                 
 42                1.442e-09        5.430e-09         25.0000         
                  1                 
 43                8.400e-10        6.882e-09         25.0000         
                  1                 
 44                1.031e-09        7.056e-09         25.0000         
                  1                 
 45                4.079e-08        6.226e-09         25.0000         
                  1                 
 46                9.793e-10        7.622e-09         25.0000         
                  1                 
 47                8.142e-10        6.609e-09         25.0000         
                  1                 
 48                9.756e-10        6.388e-09         25.0000         
                  1                 
 49                1.055e-09        7.522e-09         25.0000         
                  1                 
 50                8.566e-10        7.215e-09         25.0000         
                  1                 
 51                9.760e-10        5.799e-09         25.0000         
                  1                 
 52                1.145e-09        5.782e-09         25.0000         
                  1                 
 53                8.958e-10        7.044e-09         25.0000         
                  1                 
 54                1.094e-09        7.273e-09         25.0000         
                  1                 
 55                7.229e-10        6.956e-09         25.0000         
                  1                 
 56                1.159e-09        7.348e-09         25.0000         
                  1                 
 57                1.048e-09        1.086e-08         25.0000         
                  1                 
 58                8.258e-10        7.522e-09         25.0000         
                  1                 
 59                8.751e-10        5.223e-09         25.0000         
                  1                 
 60                1.031e-09          failed          25.0000         
                  1                 
 61                1.131e-09        7.346e-09         25.0000         
                  1                 
 62                9.333e-10        6.641e-09         25.0000         
                  1                 
 63                1.052e-09        8.088e-09         25.0000         
                  1                 
 64                1.019e-09        5.781e-09         25.0000         
                  1                 
 65                9.703e-10        6.557e-09         25.0000         
                  1                 
 66                9.289e-10        6.830e-09         25.0000         
                  1                 
 67                1.059e-09        5.300e-09         25.0000         
                  1                 
 68                1.094e-09        5.809e-09         25.0000         
                  1                 
 69                1.268e-09        7.605e-09         25.0000         
                  1                 
 70                6.839e-10        9.933e-09         25.0000         
                  1                 
 71                9.089e-10        9.236e-09         25.0000         
                  1                 
 72                8.411e-10        5.795e-09         25.0000         
                  1                 
 73                9.281e-10        6.109e-09         25.0000         
                  1                 
 74                1.199e-09        7.502e-09         25.0000         
                  1                 
 75                1.142e-09        5.958e-09         25.0000         
                  1                 
 76                1.084e-09        7.820e-09         25.0000         
                  1                 
 77                9.906e-10        7.443e-09         25.0000         
                  1                 
 78                9.462e-10        6.261e-09         25.0000         
                  1                 
 79                7.688e-10        6.457e-09         25.0000         
                  1                 
 80                1.131e-09        6.642e-09         25.0000         
                  1                 
 81                6.311e-10        7.575e-09         25.0000         
                  1                 
 82                7.813e-10          failed          25.0000         
                  1                 
 83                9.579e-10        5.200e-09         25.0000         
                  1                 
 84                7.443e-10        6.613e-09         25.0000         
                  1                 
 85                1.008e-09        8.258e-09         25.0000         
                  1                 
 86                8.592e-10        4.571e-09         25.0000         
                  1                 
 87                1.415e-09        5.270e-09         25.0000         
                  1                 
 88                1.051e-09        8.511e-09         25.0000         
                  1                 
 89                1.177e-09        6.527e-09         25.0000         
                  1                 
 90                7.739e-10        7.463e-09         25.0000         
                  1                 
 91                1.185e-09        6.822e-09         25.0000         
                  1                 
 92                7.355e-10        7.170e-09         25.0000         
                  1                 
 93                1.003e-09        5.296e-09         25.0000         
                  1                 
 94                6.915e-10        7.540e-09         25.0000         
                  1                 
 95                1.047e-09          failed          25.0000         
                  1                 
 96                8.839e-10        6.703e-09         25.0000         
                  1                 
 97                1.129e-09        8.612e-09         25.0000         
                  1                 
 98                1.128e-09        6.798e-09         25.0000         
                  1                 
 99                9.466e-10        6.027e-09         25.0000         
                  1                 
 100               1.075e-09        8.993e-09         25.0000         
                  1                 
