$DATA1 SOURCE='HSPICE' VERSION='F-2011.09 64-BIT'
.TITLE '* include model and subckts'
 index            delay_write0     delay_read0      temper            
                  alter#            
 1                 4.459e-10        7.697e-09         25.0000         
                  1                 
 2                 4.167e-10        5.646e-09         25.0000         
                  1                 
 3                 4.668e-10        4.388e-09         25.0000         
                  1                 
 4                 2.724e-10        6.118e-09         25.0000         
                  1                 
 5                 4.123e-10        2.946e-09         25.0000         
                  1                 
 6                 5.489e-10        1.003e-08         25.0000         
                  1                 
 7                 6.628e-10        4.703e-09         25.0000         
                  1                 
 8                 4.696e-10        4.592e-09         25.0000         
                  1                 
 9                 6.486e-10        8.423e-09         25.0000         
                  1                 
 10                3.923e-10        4.357e-09         25.0000         
                  1                 
 11                4.994e-10        4.510e-09         25.0000         
                  1                 
 12                4.069e-10        6.755e-09         25.0000         
                  1                 
 13                7.688e-10        5.722e-09         25.0000         
                  1                 
 14                5.649e-10        4.784e-09         25.0000         
                  1                 
 15                3.047e-10        4.280e-09         25.0000         
                  1                 
 16                4.618e-10        3.911e-09         25.0000         
                  1                 
 17                4.884e-10        5.123e-09         25.0000         
                  1                 
 18                5.051e-10        4.126e-09         25.0000         
                  1                 
 19                4.585e-10       -3.517e-08         25.0000         
                  1                 
 20                4.894e-10        4.714e-09         25.0000         
                  1                 
 21                7.067e-10        5.133e-09         25.0000         
                  1                 
 22                5.161e-10        3.765e-09         25.0000         
                  1                 
 23                5.852e-10        4.951e-09         25.0000         
                  1                 
 24                4.444e-10        5.362e-09         25.0000         
                  1                 
 25                4.763e-10        6.015e-09         25.0000         
                  1                 
 26                3.304e-10        4.918e-09         25.0000         
                  1                 
 27                2.907e-10        4.691e-09         25.0000         
                  1                 
 28                4.418e-10        3.837e-09         25.0000         
                  1                 
 29                7.639e-10        5.329e-09         25.0000         
                  1                 
 30                5.372e-10        2.785e-09         25.0000         
                  1                 
 31                4.793e-10        4.121e-09         25.0000         
                  1                 
 32                4.312e-10        4.063e-09         25.0000         
                  1                 
 33                5.748e-10        3.429e-09         25.0000         
                  1                 
 34                4.012e-10       -4.127e-08         25.0000         
                  1                 
 35                3.392e-10        6.477e-09         25.0000         
                  1                 
 36                4.239e-10        3.478e-09         25.0000         
                  1                 
 37                3.668e-10        3.619e-09         25.0000         
                  1                 
 38                5.869e-10        3.931e-09         25.0000         
                  1                 
 39                5.750e-10        4.146e-09         25.0000         
                  1                 
 40                6.520e-10        4.691e-09         25.0000         
                  1                 
 41                6.882e-10        3.168e-09         25.0000         
                  1                 
 42                5.668e-10        5.657e-09         25.0000         
                  1                 
 43                4.359e-10        2.436e-09         25.0000         
                  1                 
 44                3.652e-10        5.944e-09         25.0000         
                  1                 
 45                3.778e-10        3.616e-09         25.0000         
                  1                 
 46                5.290e-10        4.338e-09         25.0000         
                  1                 
 47                3.231e-10        5.621e-09         25.0000         
                  1                 
 48                5.730e-10        5.848e-09         25.0000         
                  1                 
 49                4.318e-10        6.205e-09         25.0000         
                  1                 
 50                7.824e-10        6.581e-09         25.0000         
                  1                 
 51                3.761e-10        4.022e-09         25.0000         
                  1                 
 52                5.384e-10        4.158e-09         25.0000         
                  1                 
 53                4.886e-10        3.456e-09         25.0000         
                  1                 
 54                3.728e-10        5.866e-09         25.0000         
                  1                 
 55                2.985e-10        4.656e-09         25.0000         
                  1                 
 56                4.701e-10        4.441e-09         25.0000         
                  1                 
 57                4.198e-10        5.327e-09         25.0000         
                  1                 
 58                4.451e-10        2.787e-09         25.0000         
                  1                 
 59                6.671e-10        5.319e-09         25.0000         
                  1                 
 60                4.120e-10       -3.621e-08         25.0000         
                  1                 
 61                3.604e-10        5.089e-09         25.0000         
                  1                 
 62                4.055e-10        3.520e-09         25.0000         
                  1                 
 63                7.032e-10        4.315e-09         25.0000         
                  1                 
 64                9.076e-10        3.879e-09         25.0000         
                  1                 
 65                5.533e-10        4.500e-09         25.0000         
                  1                 
 66                3.656e-10        3.200e-09         25.0000         
                  1                 
 67                5.106e-10        3.243e-09         25.0000         
                  1                 
 68                4.699e-10        7.548e-09         25.0000         
                  1                 
 69                5.624e-10        5.117e-09         25.0000         
                  1                 
 70                3.474e-10        6.060e-09         25.0000         
                  1                 
 71                6.728e-10        4.885e-09         25.0000         
                  1                 
 72                4.354e-10        4.625e-09         25.0000         
                  1                 
 73                4.420e-10        3.483e-09         25.0000         
                  1                 
 74                5.610e-10        4.568e-09         25.0000         
                  1                 
 75                4.147e-10        6.452e-09         25.0000         
                  1                 
 76                4.807e-10        4.015e-09         25.0000         
                  1                 
 77                4.241e-10        3.918e-09         25.0000         
                  1                 
 78                3.861e-10        3.627e-09         25.0000         
                  1                 
 79                3.474e-10        3.895e-09         25.0000         
                  1                 
 80                4.559e-10        3.065e-09         25.0000         
                  1                 
 81                5.493e-10        3.185e-09         25.0000         
                  1                 
 82                4.847e-10       -3.690e-08         25.0000         
                  1                 
 83                3.802e-10        4.039e-09         25.0000         
                  1                 
 84                3.908e-10        6.796e-09         25.0000         
                  1                 
 85                3.054e-10        5.166e-09         25.0000         
                  1                 
 86                4.489e-10       -4.108e-08         25.0000         
                  1                 
 87                5.722e-10        3.114e-09         25.0000         
                  1                 
 88                6.396e-10        4.629e-09         25.0000         
                  1                 
 89                4.551e-10        3.336e-09         25.0000         
                  1                 
 90                3.727e-10        4.775e-09         25.0000         
                  1                 
 91                5.489e-10        4.388e-09         25.0000         
                  1                 
 92                4.935e-10        5.108e-09         25.0000         
                  1                 
 93                4.264e-10        3.819e-09         25.0000         
                  1                 
 94                2.840e-10        4.615e-09         25.0000         
                  1                 
 95                6.011e-10       -3.420e-08         25.0000         
                  1                 
 96                5.283e-10        6.903e-09         25.0000         
                  1                 
 97                6.166e-10        6.723e-09         25.0000         
                  1                 
 98                3.793e-10        4.523e-09         25.0000         
                  1                 
 99                4.052e-10        3.094e-09         25.0000         
                  1                 
 100               5.133e-10        3.639e-09         25.0000         
                  1                 
