$DATA1 SOURCE='HSPICE' VERSION='F-2011.09 64-BIT'
.TITLE '* include model and subckts'
 index            delay_write0     delay_read0      temper            
                  alter#            
 1                 5.367e-10        1.146e-08         25.0000         
                  1                 
 2                 5.130e-10        8.119e-09         25.0000         
                  1                 
 3                 5.607e-10        6.210e-09         25.0000         
                  1                 
 4                 3.377e-10        9.081e-09         25.0000         
                  1                 
 5                 4.895e-10        4.087e-09         25.0000         
                  1                 
 6                 6.445e-10        1.455e-08         25.0000         
                  1                 
 7                 7.954e-10        6.721e-09         25.0000         
                  1                 
 8                 5.556e-10        6.361e-09         25.0000         
                  1                 
 9                 7.083e-10        1.183e-08         25.0000         
                  1                 
 10                4.839e-10        5.579e-09         25.0000         
                  1                 
 11                6.056e-10        6.283e-09         25.0000         
                  1                 
 12                5.010e-10        9.723e-09         25.0000         
                  1                 
 13                8.517e-10        8.165e-09         25.0000         
                  1                 
 14                6.618e-10        7.025e-09         25.0000         
                  1                 
 15                3.759e-10        6.371e-09         25.0000         
                  1                 
 16                5.621e-10        5.498e-09         25.0000         
                  1                 
 17                5.819e-10        7.485e-09         25.0000         
                  1                 
 18                5.799e-10        5.826e-09         25.0000         
                  1                 
 19                5.589e-10       -3.299e-08         25.0000         
                  1                 
 20                5.803e-10        6.730e-09         25.0000         
                  1                 
 21                7.879e-10        7.409e-09         25.0000         
                  1                 
 22                6.231e-10        5.255e-09         25.0000         
                  1                 
 23                6.935e-10        6.986e-09         25.0000         
                  1                 
 24                5.472e-10        7.699e-09         25.0000         
                  1                 
 25                5.610e-10        8.662e-09         25.0000         
                  1                 
 26                4.155e-10        6.864e-09         25.0000         
                  1                 
 27                3.536e-10        6.726e-09         25.0000         
                  1                 
 28                5.282e-10        5.211e-09         25.0000         
                  1                 
 29                9.096e-10        6.834e-09         25.0000         
                  1                 
 30                6.378e-10        3.947e-09         25.0000         
                  1                 
 31                5.761e-10        5.438e-09         25.0000         
                  1                 
 32                5.205e-10        5.884e-09         25.0000         
                  1                 
 33                6.605e-10        4.757e-09         25.0000         
                  1                 
 34                5.091e-10        6.645e-09         25.0000         
                  1                 
 35                4.171e-10        9.313e-09         25.0000         
                  1                 
 36                5.045e-10        4.875e-09         25.0000         
                  1                 
 37                4.475e-10        5.420e-09         25.0000         
                  1                 
 38                6.588e-10        5.901e-09         25.0000         
                  1                 
 39                7.040e-10        6.388e-09         25.0000         
                  1                 
 40                7.295e-10        6.704e-09         25.0000         
                  1                 
 41                7.867e-10        4.457e-09         25.0000         
                  1                 
 42                7.201e-10        7.494e-09         25.0000         
                  1                 
 43                5.112e-10        3.638e-09         25.0000         
                  1                 
 44                4.589e-10        8.501e-09         25.0000         
                  1                 
 45                4.574e-10        5.071e-09         25.0000         
                  1                 
 46                6.227e-10        6.150e-09         25.0000         
                  1                 
 47                4.050e-10        7.828e-09         25.0000         
                  1                 
 48                6.561e-10        8.434e-09         25.0000         
                  1                 
 49                5.285e-10        8.948e-09         25.0000         
                  1                 
 50                8.438e-10        9.594e-09         25.0000         
                  1                 
 51                4.718e-10        5.669e-09         25.0000         
                  1                 
 52                6.506e-10        5.919e-09         25.0000         
                  1                 
 53                5.932e-10        4.826e-09         25.0000         
                  1                 
 54                4.610e-10        7.917e-09         25.0000         
                  1                 
 55                3.716e-10        6.544e-09         25.0000         
                  1                 
 56                5.698e-10        6.166e-09         25.0000         
                  1                 
 57                5.095e-10        7.472e-09         25.0000         
                  1                 
 58                5.330e-10        3.916e-09         25.0000         
                  1                 
 59                7.645e-10        7.503e-09         25.0000         
                  1                 
 60                5.169e-10       -3.467e-08         25.0000         
                  1                 
 61                4.357e-10        7.172e-09         25.0000         
                  1                 
 62                4.785e-10        4.830e-09         25.0000         
                  1                 
 63                7.467e-10        6.047e-09         25.0000         
                  1                 
 64                1.014e-09       -4.235e-08         25.0000         
                  1                 
 65                6.495e-10        6.469e-09         25.0000         
                  1                 
 66                4.276e-10        4.540e-09         25.0000         
                  1                 
 67                6.146e-10        4.518e-09         25.0000         
                  1                 
 68                5.709e-10        1.075e-08         25.0000         
                  1                 
 69                6.690e-10        7.176e-09         25.0000         
                  1                 
 70                4.095e-10        8.649e-09         25.0000         
                  1                 
